version 2
run Net1-0-20190623-22:42:04-31697
attr configname Net1
attr datetime 20190623-22:42:04
attr experiment Net1
attr inifile omnetpp.ini
attr iterationvars ""
attr iterationvarsf ""
attr measurement ""
attr network Net
attr processid 31697
attr repetition 0
attr replication #0
attr resultdir results
attr runnumber 0
attr seedset 0
param **.gen.interArrivalTime exponential(0.5s)
param **.sys.serviceTime exponential(0.3s)

vector 0 Net.queues[0] qlen:vector ETV
attr interpolationmode sample-hold
attr title "queue length, vector"
vector 1 Net.queues[0] queueingTime:vector ETV
attr interpolationmode none
attr title "queueing time at dequeue, vector"
attr unit s
vector 2 Net.queues[0] responseTime:vector ETV
attr interpolationmode none
attr title "response time at end of service, vector"
attr unit s
vector 3 Net.sink lifetime:vector ETV
attr interpolationmode none
attr title "lifetime of arrived msg, vector"
attr unit s
vector 4 Net.sink arrivedMsg:vector ETV
attr interpolationmode none
attr title "number of arrived msg, vector"
0	0	0	0
0	5	0.627965379024	1
0	6	0.74384168483	0
0	14	1.879262290301	1
0	15	1.994540617523	0
0	19	2.121826372162	1
0	20	2.224748296276	0
0	28	3.392766653601	1
0	29	3.427029425159	0
0	37	4.504155996024	1
0	38	4.512987853573	0
0	51	6.019284831269	1
0	52	6.192771291971	0
0	65	8.935381510917	1
0	68	9.24484624073	2
0	69	9.256622747403	1
0	71	9.710998324087	0
0	83	10.899247494134	1
0	86	11.268161140012	2
0	88	11.535944000126	3
0	89	11.671598356095	2
0	92	11.689584176202	3
0	93	11.754079668907	2
0	95	11.99771263818	1
0	98	12.095332034475	0
0	101	12.357229268514	1
0	103	12.366713553115	2
0	104	12.43146591672	1
0	106	12.496320512498	0
0	109	12.847404022648	1
0	110	12.875119183368	0
0	123	14.714393945965	1
0	124	14.871432531838	0
0	132	15.908627122045	1
0	135	16.438044187789	2
0	137	16.531757220798	3
0	139	16.753459235108	4
0	141	17.277654950594	3
0	143	17.429239736307	2
0	146	17.447980580004	3
0	148	17.644536858656	4
0	150	17.664128436863	5
0	151	17.803664360216	4
0	155	18.167063939446	5
0	157	18.220881493524	6
0	159	18.338032252912	7
0	161	18.425989025625	8
0	163	18.955360383172	9
0	166	19.101400649806	10
0	168	19.415371440302	11
0	170	19.555509944541	12
0	171	19.585463098686	11
0	174	19.642073672614	12
0	175	19.750463590655	11
0	178	20.177692469515	10
0	181	20.203657823381	11
0	182	20.330314806865	10
0	184	20.417867045468	9
0	187	20.956975490017	10
0	190	21.500110180456	11
0	192	21.506942469671	12
0	193	21.612743002209	11
0	196	21.994493436749	12
0	199	22.045010824403	13
0	200	22.340670569923	12
0	203	23.18279909024	11
0	205	23.435733728798	10
0	207	23.720767166131	9
0	210	23.919526554195	10
0	213	24.383765802646	11
0	216	25.055888438722	12
0	218	25.075876588251	13
0	219	25.225538079933	12
0	222	25.242081708733	13
0	224	25.464791439693	14
0	226	25.792614581875	15
0	229	26.376051345149	16
0	230	26.782166129071	15
0	232	26.996119879374	14
0	236	27.43816994365	15
0	238	27.560367667691	16
0	240	27.976789425724	17
0	241	27.997684592608	16
0	244	28.121050528647	15
0	246	28.405549703534	14
0	248	28.701853283713	13
0	251	28.978409686978	14
0	253	29.696086226504	13
0	256	30.039244482934	12
0	258	30.07395267587	11
0	261	30.248561940957	12
0	263	30.440342048006	13
0	265	30.990765003051	14
0	268	31.061430359831	15
0	269	31.133655047341	14
0	272	31.691397264885	15
0	274	31.845156126766	16
0	275	31.870168035936	15
0	279	32.098756188394	16
0	281	32.108912417792	17
0	282	32.22341965272	16
0	284	32.408112011138	15
0	286	32.409994627335	14
0	288	32.473331229827	13
0	290	32.926384886616	12
0	293	32.991782953999	13
0	295	33.263618099475	12
0	298	33.600037280717	13
0	299	33.795121248975	12
0	302	34.022282910367	11
0	304	34.13669129937	10
0	306	34.701101063088	9
0	309	35.04445825022	8
0	312	35.237608869574	9
0	313	35.246195772855	8
0	315	35.585884097481	7
0	317	35.993347589489	6
0	320	36.094315586645	5
0	323	36.369475657504	6
0	325	36.93927963927	7
0	326	36.982918346035	6
0	330	37.237469336435	7
0	331	37.732302297978	6
0	333	37.781712956923	5
0	336	37.838588620058	6
0	337	37.922921010233	5
0	340	38.13521000888	4
0	342	38.337217507982	3
0	345	38.679049722331	4
0	346	38.787330314719	3
0	349	38.822754960366	4
0	351	39.13554464525	3
0	354	39.890170185358	4
0	357	40.334100890576	5
0	358	40.48129282647	4
0	360	40.75961261083	3
0	363	40.873018332644	4
0	366	41.004046953482	5
0	367	41.064359719348	4
0	370	41.255202352612	5
0	371	41.284918115402	4
0	373	41.542559998731	3
0	375	41.55031191127	2
0	378	41.721403792815	3
0	379	41.804362997522	2
0	382	42.236091076984	1
0	385	42.350925551447	2
0	386	42.371956970017	1
0	389	42.592743394742	2
0	390	42.756906992325	1
0	393	42.872723929779	2
0	395	42.926997479026	3
0	397	42.975458856314	4
0	400	43.193972863201	5
0	402	43.59524885608	6
0	403	43.599886034305	5
0	406	43.612350565259	6
0	408	44.023489788457	5
0	411	44.140275369589	6
0	412	44.178341825317	5
0	415	44.265316117078	6
0	417	44.494402559057	7
0	419	44.780633334771	8
0	421	45.085795422394	7
0	423	45.206421787683	6
0	425	45.862780818854	5
0	428	45.893090663384	6
0	430	46.170811562673	5
0	433	46.190127412546	6
0	434	46.213056620125	5
0	436	46.386794882503	4
0	438	46.887837892468	3
0	441	47.141222939557	2
0	444	47.449768477588	3
0	446	47.530703520944	4
0	449	48.543657929496	5
0	451	48.632320717069	6
0	454	49.11030392903	7
0	456	49.176395783837	8
0	457	49.847379147532	7
0	461	50.11836022713	8
0	463	50.383361666198	9
0	465	50.458757171295	10
0	467	50.475650564071	11
0	468	50.648173745742	10
0	471	51.126349172255	9
0	473	51.313258198819	8
0	475	51.554977827558	7
0	477	51.772920678816	6
0	480	52.285054360341	5
0	482	52.305819381214	4
0	485	52.500573983473	5
0	487	53.110928475696	4
0	489	53.117635582093	3
0	491	53.892266477089	2
0	493	53.997198200755	1
0	496	54.001911493522	0
0	499	54.355554279425	1
0	500	54.581029126317	0
0	508	55.892007643086	1
0	509	55.96370517254	0
0	521	56.433566981154	1
0	523	56.560319833726	2
0	525	56.772148384404	3
0	526	56.971172594395	2
0	529	57.346028081484	1
0	531	57.833546802821	0
0	535	58.088257815678	1
0	536	58.196732413751	0
0	563	62.31456162517	1
0	564	62.424743162225	0
0	591	66.237644331177	1
0	593	66.282221476175	2
0	595	66.311257657233	3
0	596	66.565093110351	2
0	599	66.645814519078	3
0	600	66.714561028109	2
0	604	67.241743570905	3
0	606	67.722463356691	4
0	609	68.113451217129	5
0	610	68.213238873639	4
0	612	68.241085942068	3
0	614	68.78585863179	2
0	618	69.077631285569	3
0	619	69.240874034006	2
0	622	69.379921894737	3
0	623	69.69301625237	2
0	626	69.84695206104	3
0	628	70.600952258684	2
0	630	70.854524266442	1
0	632	70.952320675259	0
0	646	73.36167101895	1
0	647	73.455377974264	0
0	655	74.670271856432	1
0	656	74.843592692883	0
0	659	74.866558370526	1
0	662	75.362310516975	2
0	663	75.554850027617	1
0	665	75.704355345144	0
0	674	77.192580858335	1
0	675	77.259026609765	0
0	678	77.762109683671	1
0	681	78.343666325384	2
0	683	78.46502557222	3
0	684	78.480300477602	2
0	686	78.584556529353	1
0	689	79.109559726539	0
0	692	79.937265710932	1
0	693	79.958658388116	0
0	710	81.388688793613	1
0	711	81.636658555551	0
0	727	82.957454002434	1
0	730	83.119553559177	2
0	732	83.215684279598	3
0	733	83.344321907291	2
0	735	83.546033880592	1
0	737	83.794848648224	0
0	740	83.825183952189	1
0	742	83.926413334038	2
0	745	84.00465121923	3
0	746	84.128199944482	2
0	748	84.181536193791	1
0	751	84.339421514661	2
0	752	84.357318349988	1
0	754	84.369688866612	0
0	771	86.964515964357	1
0	773	86.987859836179	2
0	775	87.089070586342	1
0	778	87.105187760807	2
0	779	87.227278419825	1
0	782	87.242951729326	2
0	784	87.275508161719	3
0	785	87.6796458115	2
0	788	87.681078672833	3
0	791	88.23528354994	4
0	792	88.740669217708	3
0	796	89.004197907178	4
0	798	89.612043143857	5
0	800	89.7122642414	6
0	803	90.071387481454	7
0	804	90.403057655933	6
0	807	90.505670347187	7
0	810	91.551448633499	8
0	812	91.757813566862	9
0	813	91.920667169168	8
0	816	92.163578884616	7
0	818	92.26900972975	6
0	821	93.113365239503	5
0	824	93.387274055454	6
0	826	94.306245509692	5
0	829	94.805594152142	6
0	830	94.80914030792	5
0	834	95.13851539546	6
0	835	95.207325765267	5
0	837	95.483099580406	4
0	839	95.621800901922	3
0	843	96.17539612701	4
0	845	96.283444235307	5
0	846	96.366373559115	4
0	848	96.371703657046	3
0	852	97.025565476632	4
0	853	97.835566589352	3
0	855	97.899700227147	2
0	859	98.016939928934	3
0	860	98.506127799077	2
0	862	98.766446736021	1
0	865	99.326717014805	0
0	887	102.011870811372	1
0	888	102.041931617254	0
0	891	102.138876500547	1
0	893	102.399415911089	2
0	895	102.820484062508	3
0	898	103.030980711532	4
0	899	103.620984924278	3
0	902	103.808627891709	4
0	905	104.552342768879	5
0	906	104.569139956524	4
0	909	104.75493421005	5
0	910	104.773136290064	4
0	913	104.934581162613	5
0	914	104.982323351526	4
0	918	105.066716394681	5
0	920	105.263467600242	6
0	922	106.024952072454	5
0	924	106.542211215972	4
0	926	106.547829852469	3
0	928	106.552427152552	2
0	931	106.790897489746	3
0	932	106.857396626238	2
0	934	106.9209698981	1
0	937	106.972518599197	2
0	940	107.116774954371	3
0	942	107.682464338173	4
0	943	107.778724083905	3
0	945	107.891333692893	2
0	948	108.117691509547	1
0	950	108.335954595454	0
0	953	108.51394722851	1
0	954	108.893902231959	0
0	958	109.398757140115	1
0	959	109.681925258196	0
0	971	110.224414160774	1
0	972	110.454800776158	0
0	975	110.559065596767	1
0	976	110.57638939985	0
0	979	110.863597824429	1
0	980	110.87382267656	0
0	984	111.155309709947	1
0	986	111.322011379135	2
0	987	111.349621177094	1
0	990	111.560970372891	2
0	992	111.916974405703	3
0	994	111.962143027744	4
0	996	112.051107035103	3
0	999	112.501606481994	4
0	1000	112.528712383341	3
0	1004	113.255714097808	4
0	1005	113.280359757025	3
0	1007	113.400489789139	2
0	1009	113.479074543498	1
0	1011	113.666317124792	0
0	1018	113.832427112771	1
0	1019	113.954992947253	0
0	1031	114.842171951901	1
0	1034	115.179647438728	2
0	1035	115.321710320889	1
0	1038	115.496613501974	2
0	1039	115.614328456542	1
0	1042	115.67983914789	2
0	1043	115.882421207172	1
0	1046	115.947541323437	2
0	1049	116.466163870488	3
0	1051	116.484165285363	4
0	1053	116.765577886272	5
0	1056	117.122270027672	6
0	1057	117.164344739017	5
0	1059	117.226458973219	4
0	1062	117.506396698606	5
0	1064	117.66898213385	6
0	1065	117.683977124867	5
0	1068	117.737958749815	6
0	1070	117.817464758215	7
0	1071	117.841600153646	6
0	1074	117.904564116507	7
0	1075	117.924474226546	6
0	1078	118.270449470318	5
0	1080	118.584384278155	4
0	1082	118.623103267078	3
0	1084	118.867296405077	2
0	1088	119.076184081553	3
0	1090	119.119492578776	4
0	1091	119.83290297728	3
0	1094	119.925158578336	4
0	1097	120.179759821769	5
0	1098	120.34808776731	4
0	1100	120.570351332573	3
0	1103	121.038856810552	2
0	1105	121.295246228658	1
0	1108	121.351694642168	2
0	1110	121.550235117178	3
0	1111	121.77633174219	2
0	1113	121.787308582362	1
0	1116	122.191616247602	0
0	1119	122.257126781948	1
0	1120	122.717425086836	0
0	1132	123.913731499836	1
0	1134	124.026283127079	0
0	1137	124.360732201176	1
0	1139	124.768741483158	2
0	1141	124.82001742966	3
0	1143	125.255513216193	2
0	1146	125.306022875191	3
0	1147	125.598487257239	2
0	1149	125.667102708188	1
0	1153	126.165557531085	2
0	1154	126.625174623944	1
0	1156	126.660707577006	0
0	1178	129.923475110032	1
0	1180	129.940411037653	2
0	1182	130.029348058075	1
0	1184	130.080377487594	0
0	1201	132.393815262397	1
0	1202	132.444736797439	0
0	1215	134.465185142199	1
0	1216	134.659088015341	0
0	1219	134.662967942397	1
0	1220	134.6952910034	0
0	1223	134.798330137766	1
0	1225	134.815147098226	2
0	1227	134.823011660113	3
0	1229	135.076540018706	2
0	1232	135.103015846778	3
0	1233	135.496276885077	2
0	1236	135.496295392724	3
0	1237	135.612386251126	2
0	1240	135.621270801049	3
0	1241	135.959530999081	2
0	1244	136.015721285863	1
0	1246	136.204508520972	0
0	1253	136.419839417099	1
0	1255	136.560127380188	2
0	1257	136.794588043824	3
0	1259	136.817955494692	4
0	1262	137.003536355093	5
0	1264	137.894003692539	6
0	1265	137.957507304129	5
0	1268	138.227084681816	4
0	1270	138.63577202078	3
0	1273	138.716595406076	4
0	1275	138.750362484515	5
0	1278	139.514831919871	6
0	1280	139.684950529678	7
0	1282	139.823103126142	8
0	1285	140.366204781721	9
0	1286	140.454901561524	8
0	1289	140.5074281377	9
0	1290	140.856874885148	8
0	1293	141.148225914361	7
0	1296	141.815248603911	8
0	1297	141.917721342628	7
0	1301	142.159505547933	8
0	1302	142.241313220681	7
0	1305	142.328678607282	8
0	1306	142.932961075754	7
0	1309	142.998816588272	8
0	1311	143.14732059389	7
0	1314	143.222386539571	8
0	1316	143.448005938816	9
0	1318	143.701367545766	10
0	1321	144.372377416357	11
0	1322	144.535578626104	10
0	1325	144.670463362055	11
0	1326	144.706981667776	10
0	1328	144.825931078939	9
0	1332	145.514072506434	10
0	1334	146.519137397472	9
0	1336	146.996933374875	8
0	1340	147.250500359385	9
0	1342	147.4263840521	10
0	1343	147.938267282104	9
0	1346	148.048856368721	8
0	1348	148.163620006874	7
0	1350	148.267264909227	6
0	1352	148.312042725685	5
0	1354	148.5809958865	4
0	1357	149.786983195374	3
0	1360	149.841244176085	4
0	1363	150.062911374086	5
0	1365	150.306170943965	6
0	1366	150.675468868654	5
0	1369	151.200254101088	4
0	1371	151.248586659593	3
0	1374	151.548986486138	4
0	1376	151.708013758733	5
0	1378	151.946271669219	6
0	1380	152.102467617409	5
0	1383	152.180710747033	6
0	1384	152.259332133258	5
0	1386	152.367954449931	4
0	1389	152.750608450365	5
0	1391	153.002897341808	4
0	1394	153.101131205028	5
0	1395	153.241517308559	4
0	1398	153.28267062512	5
0	1400	153.499503052807	6
0	1402	154.110007661101	5
0	1405	154.169953915103	6
0	1406	154.389182680634	5
0	1408	154.479199678179	4
0	1410	154.881245937608	3
0	1413	155.199334818132	2
0	1416	155.598666589011	3
0	1418	156.00716861942	2
0	1420	156.178733353729	1
0	1422	156.734476756508	0
0	1430	157.087693743406	1
0	1432	158.383500073027	0
0	1445	160.470815056696	1
0	1446	160.743381685635	0
0	1449	160.767480340826	1
0	1451	160.83785291854	2
0	1452	160.959542764676	1
0	1455	161.001701216641	0
0	1467	162.439655260542	1
0	1469	162.600325411977	2
0	1470	162.746554251907	1
0	1472	162.866295453084	0
0	1476	163.04885191903	1
0	1478	163.309907571235	2
0	1480	163.711475957196	3
0	1481	163.774579496043	2
0	1484	163.869964647139	3
0	1485	163.902115915408	2
0	1488	164.107590160714	1
0	1490	164.117921378484	0
0	1498	165.976971083329	1
0	1500	166.117731913528	0
0	1503	166.13967944191	1
0	1504	166.304477650953	0
0	1517	168.292689309363	1
0	1518	168.369102704943	0
0	1521	168.384997245816	1
0	1522	168.389068945914	0
0	1525	168.531272546412	1
0	1526	168.549221558498	0
0	1534	169.845657721029	1
0	1535	169.917290881585	0
0	1539	170.090211926339	1
0	1540	170.373708215286	0
0	1543	170.577151222079	1
0	1545	171.531755262094	0
0	1552	171.9030169771	1
0	1554	172.101552420059	0
0	1557	172.300453395133	1
0	1559	172.692731743592	2
0	1561	172.858862055381	3
0	1563	172.874212941887	4
0	1564	172.947115145918	3
0	1567	173.089581458543	2
0	1569	173.092747597145	1
0	1571	173.339384832554	0
0	1574	173.493731195576	1
0	1575	173.525903643129	0
0	1610	177.087383793264	1
0	1611	177.391628111571	0
0	1614	177.644689294764	1
0	1616	177.890909982953	2
0	1617	177.906784207215	1
0	1621	178.019702416124	2
0	1622	178.323521993143	1
0	1625	178.47833831458	2
0	1628	179.375674871579	3
0	1629	179.754922683478	2
0	1631	179.76172893297	1
0	1634	180.201916345161	0
0	1637	180.606997006282	1
0	1638	180.678842654849	0
0	1651	182.752379128065	1
0	1652	182.978006330255	0
0	1656	183.143321339617	1
0	1657	183.211390399177	0
0	1669	184.46116256509	1
0	1671	184.848469433268	2
0	1673	185.033312188042	1
0	1675	185.905320366904	0
0	1678	185.939826377911	1
0	1681	186.138800575235	2
0	1683	186.397914499287	3
0	1684	186.753782149642	2
0	1687	186.791256057017	3
0	1690	187.14055784049	4
0	1691	187.575403143187	3
0	1693	187.887870659182	2
0	1696	188.199684670714	1
0	1698	188.251236129131	0
0	1701	188.418316698822	1
0	1703	189.278409180612	0
0	1706	189.303993358482	1
0	1708	189.325956975545	2
0	1710	189.387661711299	3
0	1711	189.413785633739	2
0	1714	189.443926684488	3
0	1715	189.490623864198	2
0	1717	189.603852838537	1
0	1720	189.690366068671	2
0	1722	189.868724195008	3
0	1724	189.956179325056	4
0	1726	190.819665474591	3
0	1730	191.043295778623	4
0	1732	191.17922869791	5
0	1733	191.184123797819	4
0	1735	191.253974916411	3
0	1737	191.317043737543	2
0	1740	191.614036378329	3
0	1741	191.749884491337	2
0	1744	191.904181172321	3
0	1747	192.128345825627	4
0	1748	192.142779765101	3
0	1750	192.256467662512	2
0	1753	193.099579805873	1
0	1755	193.115748436934	0
0	1758	193.337871522706	1
0	1759	193.343522882482	0
0	1772	195.179162014031	1
0	1774	195.73742130081	2
0	1775	195.807266633761	1
0	1778	196.103367510327	0
0	1781	196.113806126829	1
0	1782	196.248586372085	0
0	1823	202.833247287442	1
0	1826	203.116598267367	2
0	1827	203.582362566879	1
0	1829	203.826267436022	0
0	1837	204.716291605995	1
0	1839	204.787903241736	2
0	1841	204.838811062725	3
0	1844	205.049144898925	4
0	1846	205.496197842988	5
0	1847	205.842924501831	4
0	1851	206.034393072697	5
0	1852	206.049103521834	4
0	1855	206.053537471583	5
0	1857	206.270387206783	6
0	1859	206.909388271366	7
0	1862	207.416867750551	8
0	1865	208.255335117047	9
0	1866	208.942490902953	8
0	1869	209.27459516166	7
0	1873	210.124909356067	8
0	1874	210.156755483181	7
0	1876	210.204938790289	6
0	1878	210.684199345427	5
0	1880	210.81130708198	4
0	1883	210.848063142145	5
0	1885	210.927963032362	6
0	1887	210.960304834935	7
0	1888	210.974794143674	6
0	1891	211.033846896967	5
0	1894	211.098775947599	6
0	1895	211.260298717645	5
0	1898	211.467844318873	6
0	1900	211.566710202844	7
0	1902	211.850654049404	8
0	1905	212.047262692899	9
0	1906	212.079731980284	8
0	1908	212.43607350104	7
0	1911	212.485082091944	8
0	1913	213.538558732031	7
0	1916	213.898344077226	8
0	1918	214.292504577713	7
0	1920	214.655249820635	6
0	1924	215.271470012338	7
0	1926	215.526717593689	8
0	1928	215.766005879224	9
0	1930	215.845977985901	10
0	1932	216.295223537703	9
0	1934	216.379049331993	8
0	1937	216.423465252685	9
0	1938	216.80678175534	8
0	1940	216.810370310274	7
0	1942	216.851297702103	6
0	1944	216.889124396703	5
0	1947	217.164608734285	4
0	1950	217.413942900747	5
0	1951	217.550783054164	4
0	1954	217.654932505527	5
0	1955	217.661378127804	4
0	1958	217.74751053227	5
0	1961	218.881995075582	6
0	1964	219.040113628503	7
0	1965	219.339485575853	6
0	1968	219.360571340101	7
0	1969	219.38872975782	6
0	1972	219.665948427534	7
0	1973	219.672757896082	6
0	1975	219.893213075408	5
0	1977	219.935338843089	4
0	1980	220.713652676658	3
0	1982	220.729835858922	2
0	1984	220.779750867866	1
0	1987	221.044182788198	0
0	1998	221.664437292499	1
0	2000	221.875782186533	2
0	2002	222.079245667057	1
0	2004	222.28335422616	0
0	2007	222.501256516862	1
0	2008	222.691112301387	0
0	2015	222.990774788037	1
0	2018	223.02708281709	2
0	2019	223.137285144462	1
0	2022	223.891212503574	2
0	2024	224.118607481063	1
0	2027	224.448269871807	2
0	2028	224.636958607662	1
0	2030	224.789006220197	0
0	2033	224.833200839714	1
0	2034	224.835834235928	0
0	2038	225.092827702154	1
0	2040	225.257881049181	2
0	2041	225.43392668318	1
0	2043	225.446089880686	0
0	2070	229.324551804478	1
0	2072	229.339364180626	2
0	2073	229.558978290917	1
0	2076	229.722133721763	2
0	2078	230.666218313992	1
0	2080	230.963307813872	0
0	2084	231.310849032496	1
0	2085	231.599788719209	0
0	2094	233.739296809623	1
0	2097	234.475603240895	2
0	2098	234.484088799763	1
0	2100	234.670950090347	0
0	2112	235.341248592053	1
0	2114	235.345612540206	2
0	2116	235.358243101106	3
0	2117	235.425062114076	2
0	2120	235.436152694161	3
0	2121	235.452437664229	2
0	2124	235.470080633185	3
0	2125	235.553187578107	2
0	2127	235.623939860556	1
0	2129	235.646613413019	0
0	2132	235.700693521988	1
0	2133	235.974717010063	0
0	2137	236.443100559012	1
0	2138	236.839678987153	0
0	2146	237.692279976567	1
0	2148	237.970665382287	2
0	2150	238.080167843062	1
0	2153	238.150213223699	2
0	2154	238.252136724157	1
0	2156	238.471301699238	0
0	2159	238.910651177516	1
0	2161	239.027457430129	0
0	2169	240.436302879564	1
0	2171	240.685561045521	2
0	2173	241.124912144906	1
0	2175	241.565470576229	0
0	2178	241.738957108461	1
0	2180	242.034957667379	0
0	2193	244.704965410001	1
0	2194	244.768609646823	0
0	2197	244.851497158895	1
0	2198	244.950206225523	0
0	2202	245.002661227919	1
0	2203	245.006787067519	0
0	2206	245.114555613987	1
0	2208	245.27696401631	2
0	2209	245.464741647307	1
0	2212	245.648531843463	2
0	2214	245.90024490119	3
0	2217	246.032929880077	4
0	2218	246.228563654709	3
0	2221	246.473189099232	4
0	2223	246.475123010826	5
0	2225	246.573483355141	6
0	2228	247.047976528529	7
0	2230	247.090412234049	8
0	2231	247.641060214906	7
0	2235	248.158509197207	8
0	2237	248.627513255011	9
0	2239	248.826543757505	10
0	2241	249.146532532318	9
0	2243	249.289433250425	8
0	2246	249.63803876604	9
0	2248	249.906349807526	10
0	2250	250.01347765501	9
0	2253	250.174941676069	10
0	2254	250.307700356987	9
0	2257	250.330387707621	10
0	2259	250.347115087184	11
0	2261	250.624630949841	12
0	2263	250.67393069994	13
0	2264	250.820018886214	12
0	2266	250.973246113048	11
0	2269	251.31571257601	10
0	2272	252.098679932906	9
0	2274	252.511448214073	8
0	2277	252.594888851672	9
0	2278	252.756815440523	8
0	2281	252.888910757511	9
0	2283	253.197520207449	8
0	2286	253.313044162431	9
0	2288	254.047892435426	8
0	2291	254.763498683023	9
0	2292	254.969335186078	8
0	2296	255.022513211582	9
0	2297	255.158452603962	8
0	2299	255.185371390843	7
0	2301	255.813226732686	6
0	2304	256.275906448566	5
0	2307	256.715383663034	6
0	2308	256.726327567645	5
0	2311	256.855829240783	6
0	2313	257.035956384718	5
0	2315	257.108588071782	4
0	2318	257.597308922972	5
0	2319	257.657677674114	4
0	2321	257.796977127786	3
0	2324	258.060778247812	2
0	2327	258.236352069916	3
0	2328	258.302169764784	2
0	2330	258.394220072047	1
0	2333	258.576919708965	2
0	2334	258.996560529279	1
0	2337	259.226929718427	0
0	2348	259.826105609958	1
0	2350	259.880128643394	2
0	2352	259.96515718779	3
0	2355	260.146502755893	4
0	2357	260.18567765644	5
0	2359	260.462077323192	6
0	2360	260.466546968989	5
0	2363	260.519007651845	6
0	2365	260.801819112356	7
0	2367	260.968916819836	8
0	2369	261.307224402621	7
0	2371	261.357234622158	6
0	2373	261.94906467869	5
0	2377	262.337928467473	6
0	2379	263.439014428327	5
0	2381	263.440086691661	4
0	2383	263.638985279598	3
0	2386	263.686195894433	4
0	2389	264.246375435811	5
0	2391	264.373477767166	6
0	2393	264.386010060943	7
0	2395	264.389758233167	8
0	2396	264.711383315497	7
0	2398	264.921287493127	6
0	2401	265.393849652564	5
0	2403	265.583394284162	4
0	2406	265.701170994116	5
0	2408	266.071906354924	4
0	2411	266.154421632726	5
0	2412	266.565727902836	4
0	2414	266.808940553141	3
0	2416	266.982447028944	2
0	2419	267.349156577619	1
0	2422	267.69762020217	2
0	2424	268.260480474742	1
0	2427	268.432386860105	2
0	2428	268.447229345727	1
0	2430	268.836019902958	0
0	2433	268.984049511455	1
0	2436	269.028501623903	2
0	2437	269.080193320174	1
0	2439	269.127899268164	0
0	2442	269.161249145227	1
0	2443	269.161848757688	0
0	2463	270.687621435469	1
0	2465	270.720453028057	2
0	2466	270.817268121593	1
0	2469	270.837209881076	2
0	2471	270.883403640454	3
0	2472	270.988571333118	2
0	2476	271.344343269594	3
0	2477	271.770294841797	2
0	2479	271.838715569413	1
0	2481	271.908050577904	0
0	2494	273.456719211933	1
0	2495	273.576869956609	0
0	2498	273.861114275073	1
0	2501	274.187486085344	2
0	2502	274.245264586686	1
0	2504	274.278643793711	0
0	2512	275.592516904497	1
0	2514	275.608919681859	2
0	2516	275.913955077497	3
0	2517	275.982005618042	2
0	2520	276.027367506919	1
0	2522	276.469146228913	0
0	2525	276.784862088228	1
0	2528	277.105275123977	2
0	2529	277.149195800619	1
0	2532	278.056391956953	0
0	2535	278.175013885468	1
0	2537	278.438598280316	2
0	2538	278.585027999425	1
0	2541	278.67241031895	2
0	2543	278.893376913386	3
0	2545	279.07057222465	2
0	2547	279.605236640151	1
0	2550	280.428473111212	0
0	2562	281.307379848459	1
0	2564	281.404782896719	2
0	2566	281.735140443428	3
0	2567	281.78582636069	2
0	2570	281.81073565665	3
0	2571	281.840469904566	2
0	2575	282.296469633434	3
0	2576	282.947061971788	2
0	2579	283.34570568345	1
0	2581	283.478686452084	0
0	2584	283.580430993316	1
0	2586	283.636598333642	2
0	2587	283.952022261427	1
0	2590	283.960633513484	2
0	2593	284.040601315419	3
0	2595	284.18907484481	4
0	2598	285.223056002389	5
0	2599	285.272895842408	4
0	2602	285.561586858567	5
0	2604	285.78403609306	6
0	2605	285.844983581711	5
0	2608	286.149270222445	4
0	2611	286.40107610643	5
0	2612	286.503356960306	4
0	2614	286.655593320031	3
0	2616	286.74689196931	2
0	2618	286.983761890901	1
0	2622	287.230372799883	2
0	2624	287.385273867163	3
0	2626	287.562373174206	4
0	2627	287.620394736132	3
0	2630	288.146720428846	2
0	2632	288.165562763841	1
0	2634	288.685678420654	0
0	2656	291.911377845285	1
0	2658	292.501465908042	0
0	2670	293.993610647537	1
0	2672	294.236998244988	0
0	2675	294.291048775483	1
0	2677	294.385538033842	2
0	2679	294.429995215015	3
0	2680	294.511796499351	2
0	2683	294.731400669017	3
0	2686	295.2254749956	4
0	2687	295.318123485086	3
0	2689	295.467411376428	2
0	2692	295.482079186217	3
0	2693	295.683027179843	2
0	2696	296.160998433192	1
0	2699	296.314656549906	2
0	2700	296.332200493376	1
0	2703	296.433439321371	2
0	2704	296.455147402477	1
0	2707	296.861900872114	2
0	2709	297.29022350773	1
0	2711	297.830952342156	0
0	2719	298.319350630013	1
0	2720	298.546425499285	0
0	2733	300.459396051562	1
0	2735	300.510108443257	2
0	2738	301.505716263505	3
0	2739	301.690101117747	2
0	2742	301.923655047274	3
0	2744	302.035400535453	2
0	2747	302.106572466843	3
0	2748	302.203028856881	2
0	2750	302.544385131369	1
0	2752	302.695470613584	0
0	2755	302.814669207091	1
0	2758	303.224902991051	2
0	2760	303.640724467404	3
0	2762	303.666987512583	4
0	2764	303.721938900177	5
0	2765	303.855270075055	4
0	2769	304.198465613266	5
0	2770	304.556735681988	4
0	2772	304.668638402945	3
0	2774	304.684366502917	2
0	2777	304.845001582204	3
0	2780	305.520925010653	4
0	2782	305.65683677016	5
0	2784	306.013791353478	4
0	2786	306.031340424659	3
0	2789	306.173839681531	4
0	2790	306.197398982454	3
0	2792	306.239424515615	2
0	2794	306.590822711814	1
0	2797	306.82386268612	2
0	2798	306.849014620224	1
0	2800	306.964868899395	0
0	2808	307.763133944926	1
0	2810	307.853015989012	2
0	2813	308.212664375149	3
0	2816	309.208292620818	4
0	2818	309.421916428971	5
0	2820	309.560872952372	6
0	2821	309.666137336128	5
0	2823	309.8673023028	4
0	2827	310.217516130045	5
0	2829	310.567851651124	6
0	2831	310.81699605973	7
0	2834	311.065731048442	8
0	2835	311.385315236289	7
0	2838	311.856901373587	8
0	2840	311.979636114657	9
0	2842	312.060706367499	8
0	2845	313.529730201595	7
0	2847	313.600595965962	6
0	2850	313.800990958667	7
0	2853	314.404526539118	8
0	2854	314.489294846961	7
0	2856	314.658851783091	6
0	2859	314.695130190674	7
0	2860	314.75177392875	6
0	2863	315.047178943556	5
0	2866	315.241889879247	6
0	2867	315.607969722355	5
0	2870	315.705158334515	6
0	2872	315.829455596651	7
0	2875	316.317070117868	8
0	2877	316.376178215386	9
0	2878	316.48887710053	8
0	2881	316.683318354694	9
0	2883	316.755726421936	10
0	2885	317.258851435594	9
0	2887	317.522414854329	8
0	2889	317.792695780633	7
0	2892	318.316173844527	6
0	2894	318.346214312873	5
0	2896	318.374891200094	4
0	2899	318.433208611617	5
0	2900	318.506356023162	4
0	2903	319.037285212157	3
0	2905	319.199882239183	2
0	2907	319.277558630695	1
0	2910	319.597571555207	2
0	2912	319.891174240856	3
0	2915	320.119853196582	4
0	2916	320.681224474352	3
0	2918	320.769113972553	2
0	2921	320.899628837444	3
0	2923	320.938915950922	4
0	2925	321.020897133086	3
0	2927	321.165959138303	2
0	2929	321.791099760065	1
0	2932	321.821496840709	2
0	2934	322.148779756151	1
0	2936	322.152671958524	0
0	2949	324.185639464932	1
0	2951	324.524632225788	2
0	2952	324.760745834956	1
0	2955	325.157773482094	0
0	2958	325.55970339487	1
0	2960	325.679997908748	2
0	2961	325.87603625763	1
0	2964	326.090515933685	0
0	2985	328.289093840373	1
0	2986	328.515618796016	0
0	2995	330.12606422402	1
0	2996	330.134954168767	0
0	2999	330.575388201368	1
0	3001	330.803434084231	2
0	3003	331.146606744754	1
0	3005	331.640064055795	0
0	3013	332.565862254612	1
0	3015	332.932931662778	2
0	3017	332.948502129503	3
0	3018	332.985609958655	2
0	3021	333.038697570594	1
0	3024	333.075570085933	2
0	3026	333.512089611794	3
0	3028	333.568938626004	4
0	3030	333.738457539834	5
0	3033	334.043507690936	6
0	3035	334.054094006864	7
0	3036	334.267533026684	6
0	3038	334.286701793522	5
0	3041	334.3192813393	6
0	3043	334.458925290306	7
0	3044	334.555615238188	6
0	3046	334.66087959683	5
0	3049	334.903067341385	6
0	3052	335.037552605556	7
0	3053	335.220615421798	6
0	3056	335.522002807002	7
0	3058	335.651943783042	8
0	3060	335.723849460438	9
0	3061	335.95316461384	8
0	3064	336.707624144598	7
0	3068	337.061229157368	8
0	3069	337.152013483143	7
0	3071	337.234011472765	6
0	3073	337.339797297532	5
0	3077	338.106116101207	6
0	3079	338.175377022262	7
0	3081	338.494192881889	8
0	3083	338.529454064185	9
0	3085	339.530324838094	8
0	3087	339.943993333601	7
0	3090	339.969325954852	8
0	3093	340.604719014541	9
0	3095	340.82010497108	10
0	3097	340.966876172753	11
0	3100	341.121024948385	12
0	3102	341.189103235071	13
0	3103	341.284099375883	12
0	3105	341.302105168214	11
0	3107	341.363280462912	10
0	3110	341.562175733572	11
0	3111	341.670258032127	10
0	3114	341.863582685761	11
0	3116	342.064414129947	10
0	3118	342.207192384461	9
0	3120	342.217021242771	8
0	3122	342.341149488653	7
0	3125	342.513721050488	8
0	3126	342.56607845864	7
0	3128	342.837486278033	6
0	3132	343.041676500145	7
0	3134	343.364164418989	8
0	3135	343.605085247903	7
0	3137	343.632485520616	6
0	3139	343.755983827793	5
0	3141	343.761568655095	4
0	3143	343.76700896549	3
0	3146	344.737619189137	2
0	3149	345.002087062787	1
0	3152	345.104380129171	2
0	3153	345.215696399077	1
0	3156	345.669500548635	2
0	3158	345.801986616494	3
0	3159	345.909963778879	2
0	3162	345.987974620707	3
0	3165	346.053406088596	4
0	3167	346.381693409838	5
0	3169	346.429799156923	6
0	3171	346.560011691667	7
0	3172	346.970680029043	6
0	3174	346.972809708404	5
0	3178	347.138262074745	6
0	3179	347.271777178613	5
0	3182	347.537576489963	6
0	3183	347.55811575754	5
0	3186	347.581059078805	6
0	3187	347.583197186441	5
0	3191	348.757087021341	6
0	3192	348.930108511319	5
0	3195	349.33977842292	4
0	3197	349.405741125296	3
0	3199	349.418010675569	2
0	3201	349.418276450059	1
0	3204	349.736594081579	2
0	3206	349.750784555968	3
0	3208	349.853343043724	4
0	3210	350.381777546338	3
0	3212	350.852201437224	2
0	3214	350.90640456828	1
0	3216	350.952525697824	0
0	3219	350.984598445619	1
0	3221	351.155516963426	0
0	3224	351.698259127955	1
0	3227	352.208339158634	2
0	3229	352.576030279822	3
0	3230	352.632586451911	2
0	3233	352.82971160786	3
0	3234	352.845033459557	2
0	3236	352.905808203	1
0	3239	353.017494618313	0
0	3242	353.174675893758	1
0	3245	354.161759238918	2
0	3246	354.386109316779	1
0	3249	354.642477791868	2
0	3251	354.892063668558	3
0	3253	355.247015529809	2
0	3257	356.186130501743	3
0	3258	356.225063866489	2
0	3260	356.293798808404	1
0	3262	356.468720350816	0
0	3265	356.5579057454	1
0	3267	357.087042834381	0
0	3280	359.636967553567	1
0	3282	359.64557140014	2
0	3284	360.014837321124	1
0	3287	361.260198393312	0
0	3290	361.352028031481	1
0	3291	361.642063460596	0
0	3294	361.753999315353	1
0	3295	361.81828177266	0
0	3298	361.908815928238	1
0	3301	362.063374773341	2
0	3302	362.877958542201	1
0	3305	362.943931545154	2
0	3308	363.686901386905	3
0	3309	363.715665521219	2
0	3312	364.008412337025	1
0	3315	364.763202796725	2
0	3318	365.189208535432	3
0	3319	365.400090016195	2
0	3322	365.495833796193	3
0	3324	365.60915615541	4
0	3325	365.630773598233	3
0	3327	365.724396416749	2
0	3330	365.884622142689	3
0	3331	365.901512385567	2
0	3334	365.973996669409	3
0	3336	366.311433683536	2
0	3338	366.433392081264	1
0	3340	366.456601453729	0
0	3343	366.603444671985	1
0	3345	366.621341201193	2
0	3346	366.751911505297	1
0	3348	366.844212240088	0
0	3357	368.20693418668	1
0	3359	368.759114306546	2
0	3361	368.899817173728	3
0	3364	369.01207442977	4
0	3366	369.050998532587	5
0	3368	369.276659325376	6
0	3369	369.478664061958	5
0	3371	369.848517229866	4
0	3373	369.977385376594	3
0	3376	370.032181293216	2
0	3379	370.144594215789	3
0	3380	370.216038504434	2
0	3382	370.216865210771	1
0	3384	370.693086329477	0
0	3406	373.845386467052	1
0	3409	374.045364987258	2
0	3410	374.231879214493	1
0	3412	374.260426258741	0
0	3420	375.078952961748	1
0	3422	375.422086540508	2
0	3423	375.448399548331	1
0	3425	375.491632471244	0
0	3432	375.710953822816	1
0	3433	375.749563934716	0
0	3445	376.694774082098	1
0	3447	376.781590018992	2
0	3448	376.863028923752	1
0	3450	376.988206465233	0
0	3463	378.835295260195	1
0	3466	379.927088068411	2
0	3468	379.929752675951	3
0	3470	379.960868784565	4
0	3472	380.406159977571	3
0	3474	380.473990633595	2
0	3476	380.524638944673	1
0	3478	380.746690962749	0
0	3482	381.103203354043	1
0	3483	381.108815099463	0
0	3490	381.331448248929	1
0	3491	381.356922309769	0
0	3504	383.000454204496	1
0	3505	383.000946919455	0
0	3528	387.286929048572	1
0	3529	387.495566582345	0
0	3546	389.664563585105	1
0	3547	389.994137406196	0
0	3561	392.102022975477	1
0	3562	392.276946897085	0
0	3570	393.671680738348	1
0	3572	393.833395576057	2
0	3575	394.064035307506	3
0	3576	394.079882536542	2
0	3579	394.302967652199	3
0	3580	394.4966352961	2
0	3583	394.861695753045	3
0	3584	394.937946431358	2
0	3588	395.030634041501	3
0	3590	395.108101199345	4
0	3592	395.287374491648	5
0	3593	395.538858194508	4
0	3596	395.992396637017	5
0	3598	396.679059078439	4
0	3601	397.049241540943	3
0	3604	397.088209461543	4
0	3606	397.617424365744	5
0	3608	397.828442059321	6
0	3609	397.836575317013	5
0	3613	398.226418943818	6
0	3614	398.298393415131	5
0	3616	398.339920483015	4
0	3618	398.756682440538	3
0	3621	398.969275327643	4
0	3623	398.990301179505	5
0	3625	399.402613158331	4
0	3628	399.83785635657	5
0	3630	399.84256605985	6
0	3632	399.896575832859	7
0	3634	400.327699296494	6
0	3636	400.606925462533	5
0	3638	400.632055475332	4
0	3641	400.661136949991	5
0	3642	400.706500327809	4
0	3645	400.741443753967	5
0	3647	400.770248479359	6
0	3649	401.620048705216	5
0	3653	402.277765732001	6
0	3655	403.249845204435	5
0	3657	403.250121920255	4
0	3661	404.293388110635	5
0	3663	404.356518775903	6
0	3665	405.216269718695	5
0	3668	405.7488990853	6
0	3670	405.899849259203	7
0	3673	406.195638241064	8
0	3675	406.245381162125	9
0	3676	406.905864566055	8
0	3679	407.240036165039	7
0	3681	407.255338927128	6
0	3684	407.291739422788	7
0	3685	407.337566850649	6
0	3688	407.34705780079	7
0	3690	407.421965597789	8
0	3691	407.468041112643	7
0	3693	407.469907393066	6
0	3695	407.861703425556	5
0	3699	408.02635904215	6
0	3700	408.082955914004	5
0	3702	408.279475640112	4
0	3704	408.484932934482	3
0	3707	408.571974500445	4
0	3709	408.792344423889	5
0	3710	408.809416172227	4
0	3712	408.939772785054	3
0	3715	409.188164969607	2
0	3717	409.262365703058	1
0	3720	409.291798308844	2
0	3721	409.67812117868	1
0	3723	409.743708100721	0
0	3726	409.762008977748	1
0	3727	409.8334410817	0
0	3730	409.968133664733	1
0	3732	410.18630111144	0
0	3735	410.389290223722	1
0	3737	410.529083551234	2
0	3739	410.659964406069	3
0	3741	410.689558504952	4
0	3743	411.7593914053	3
0	3746	412.083528259107	2
0	3749	412.17209318698	3
0	3750	412.342036107061	2
0	3753	413.586636430133	1
0	3756	414.140676772688	0
0	3759	414.428485844934	1
0	3761	414.491787535222	2
0	3762	414.505512573984	1
0	3765	414.762034231234	2
0	3768	415.427445300071	3
0	3769	415.46310089464	2
0	3772	415.582021075686	3
0	3774	415.732153115361	4
0	3777	416.441962282451	5
0	3778	416.455500205042	4
0	3780	416.732776201674	3
0	3783	416.749939813355	4
0	3785	417.073736303819	3
0	3787	417.503621259715	2
0	3791	418.301005100443	3
0	3793	419.054405501104	2
0	3796	419.289776069929	3
0	3798	419.431340332353	4
0	3799	419.466883173393	3
0	3802	419.620524685887	4
0	3803	419.874001288147	3
0	3806	419.901581316839	4
0	3809	420.409416312978	5
0	3811	420.460929047073	6
0	3813	420.612097545313	7
0	3815	420.710062217282	8
0	3816	420.894901636232	7
0	3820	421.193924736343	8
0	3822	421.372727540611	9
0	3823	421.526014101898	8
0	3825	421.847592285761	7
0	3828	422.165971193348	6
0	3831	422.179446993668	7
0	3832	422.269412501244	6
0	3835	422.308286405848	7
0	3837	422.31908144622	8
0	3839	422.373050483634	9
0	3841	422.545831351991	10
0	3842	422.719139539487	9
0	3844	422.810910548101	8
0	3846	422.871121476484	7
0	3849	423.975984802524	6
0	3852	424.136531987722	5
0	3854	424.323323042271	4
0	3856	424.344284001793	3
0	3858	424.516835405338	2
0	3861	424.582811578202	3
0	3862	424.67778468985	2
0	3865	424.775882790921	3
0	3866	424.87824100516	2
0	3869	424.982340228735	3
0	3872	425.223592321009	4
0	3874	425.23613280579	5
0	3875	425.624370906979	4
0	3877	425.63154228073	3
0	3880	426.06369743196	2
0	3883	426.1251531581	3
0	3885	426.992574198828	4
0	3887	427.333121885038	3
0	3889	427.375369854238	2
0	3891	427.485511065194	1
0	3895	428.262105253908	2
0	3896	428.292818145879	1
0	3899	428.436363809681	2
0	3901	428.504323559561	3
0	3904	429.190890464343	4
0	3906	429.3297769614	5
0	3908	429.686472520551	6
0	3909	429.797603956208	5
0	3912	429.83196508098	6
0	3913	429.838776081925	5
0	3916	430.304150718855	4
0	3918	430.890555156234	3
0	3920	430.907975412757	2
0	3923	430.910603315355	3
0	3925	430.93821885764	4
0	3928	431.190493821664	5
0	3930	431.282116304037	6
0	3931	431.405713443897	5
0	3933	431.505520918966	4
0	3935	431.987815500945	3
0	3938	432.054512522731	2
0	3941	432.144832316391	3
0	3942	432.913010436552	2
0	3945	433.54248117688	1
0	3948	433.844059499542	2
0	3950	434.138694694573	1
0	3952	434.442687893008	0
0	3961	436.440786819468	1
0	3962	436.453420981781	0
0	3976	439.653019612664	1
0	3978	439.68668894759	2
0	3980	439.709486418875	3
0	3982	440.672214365816	2
0	3984	440.828870206275	1
0	3987	440.93204251691	2
0	3988	440.974434457941	1
0	3991	441.045344532966	0
0	3994	441.340250964126	1
0	3996	441.596037692712	2
0	3999	442.144152353846	3
0	4001	442.400298677383	4
0	4002	442.662308440979	3
0	4004	442.960857285812	2
0	4008	443.131227335684	3
0	4009	443.260926120784	2
0	4012	443.266818890455	3
0	4014	443.616853713318	4
0	4016	443.726164451127	5
0	4018	443.739890249963	6
0	4020	443.783856922616	7
0	4023	444.056097808928	8
0	4024	444.313130534788	7
0	4027	444.420092787349	8
0	4029	444.512611074741	9
0	4031	444.746863551146	10
0	4032	444.920956333193	9
0	4034	444.921243220351	8
0	4038	445.013893807467	9
0	4040	445.189305552501	10
0	4042	445.369999943823	11
0	4043	445.385072802153	10
0	4046	445.589942163235	11
0	4048	445.827674114357	12
0	4049	445.948878305698	11
0	4051	445.980182844851	10
0	4054	446.23350811533	9
0	4056	446.266098917876	8
0	4059	446.286987953097	9
0	4061	446.338369704851	10
0	4063	446.400863187383	11
0	4064	446.782952828996	10
0	4068	447.239784581725	11
0	4069	447.275329247945	10
0	4072	447.968593980854	11
0	4075	448.592102797706	12
0	4076	448.610740187367	11
0	4078	448.924277718817	10
0	4081	448.963265709867	11
0	4083	449.793314740316	10
0	4086	449.958359150173	11
0	4089	450.121217253843	12
0	4091	450.909416321677	13
0	4093	451.050734573741	12
0	4095	451.388049246042	11
0	4098	451.448777844534	12
0	4099	451.735276081366	11
0	4101	451.979644697265	10
0	4105	452.194338202628	11
0	4107	452.213028942252	12
0	4109	452.292761388505	13
0	4111	452.998643839412	14
0	4114	453.042399422704	15
0	4115	453.132838065146	14
0	4117	453.394732957034	13
0	4120	453.405362417508	14
0	4121	453.494046110369	13
0	4124	453.565668746193	14
0	4125	453.568546611126	13
0	4127	453.580809796078	12
0	4130	453.585674857315	13
0	4131	453.805759562859	12
0	4134	453.867834931859	13
0	4136	454.040899074763	12
0	4139	454.216807560828	13
0	4140	454.295339252401	12
0	4142	454.710208005528	11
0	4145	454.815461460831	12
0	4147	455.022407361273	11
0	4149	455.06504408935	10
0	4152	455.206276324651	11
0	4153	455.505145445343	10
0	4156	455.57575684442	11
0	4157	455.578782915216	10
0	4160	455.981872201799	11
0	4163	456.150626066874	12
0	4164	456.245734531898	11
0	4168	457.310239646923	12
0	4169	457.595178454282	11
0	4172	457.794197317846	12
0	4174	457.98155203304	13
0	4177	458.066411647984	14
0	4178	458.172525404418	13
0	4181	458.593422916553	14
0	4182	458.751912396108	13
0	4185	458.781563443278	14
0	4186	458.976925243828	13
0	4189	459.066816549964	12
0	4191	459.075850425433	11
0	4193	459.342957712496	10
0	4196	459.727916097697	11
0	4197	459.975503331036	10
0	4200	460.948357441012	9
0	4204	461.018352367087	10
0	4206	461.096199414793	11
0	4207	461.230648000481	10
0	4210	461.348484100478	11
0	4212	461.733681972709	12
0	4214	461.845372439404	13
0	4216	462.146269505027	12
0	4218	462.290899284895	11
0	4221	462.405269876519	12
0	4223	462.470372969343	13
0	4225	462.620655475396	14
0	4227	462.651634647381	15
0	4228	462.70427994279	14
0	4231	462.769407512347	15
0	4233	462.811253141822	16
0	4235	462.888457578681	17
0	4239	464.321714377336	18
0	4241	464.440399996954	19
0	4243	464.463385206484	20
0	4246	465.447736408183	21
0	4248	465.485946932011	22
0	4250	466.236586464882	21
0	4252	466.354369135448	20
0	4254	466.925681127747	19
0	4258	467.118947149854	20
0	4259	467.48105843614	19
0	4261	467.507992626661	18
0	4263	467.813401533425	17
0	4266	468.310784385319	16
0	4269	469.465196422479	15
0	4271	469.802630261591	14
0	4274	470.004706948629	13
0	4276	470.070367124535	12
0	4278	470.115492387772	11
0	4281	470.231981249579	12
0	4282	470.510329060524	11
0	4284	470.650792431962	10
0	4287	470.767432650066	11
0	4290	471.073525264183	12
0	4292	471.432745836665	13
0	4293	471.814019847051	12
0	4297	472.628663400245	13
0	4298	472.908356052026	12
0	4301	473.030611121916	11
0	4303	473.514845760884	10
0	4306	473.709053505468	11
0	4308	473.942815973573	12
0	4310	474.57918324469	11
0	4313	474.681214713245	12
0	4314	474.781527544651	11
0	4316	474.879953247423	10
0	4319	475.014078304588	9
0	4321	475.161819787715	8
0	4323	475.205740410358	7
0	4326	475.290591361285	8
0	4328	475.41596504607	9
0	4329	475.488611041124	8
0	4331	475.87070312074	7
0	4333	475.901853767123	6
0	4337	476.07063634714	7
0	4338	476.530901228827	6
0	4340	476.874729990759	5
0	4343	476.973502770964	6
0	4345	477.138970234756	5
0	4347	477.157164978041	4
0	4351	478.038610278748	5
0	4352	478.149940661823	4
0	4354	478.176321958317	3
0	4357	478.197029178767	4
0	4358	478.550455684435	3
0	4361	478.570919601321	4
0	4363	478.724833506148	5
0	4365	478.778277704592	6
0	4367	478.947222417544	7
0	4370	479.05670250174	8
0	4372	479.061174439807	9
0	4373	479.743739270792	8
0	4377	480.170762603941	9
0	4378	480.424038889237	8
0	4380	480.568356934289	7
0	4383	480.903533128064	8
0	4385	481.021507971605	7
0	4388	481.096242237911	8
0	4390	481.866093309474	9
0	4392	482.429639497937	8
0	4395	482.557190742143	9
0	4397	482.565383900935	10
0	4400	483.080118343326	11
0	4401	483.170175264197	10
0	4403	483.238624145386	9
0	4406	483.372599399572	10
0	4408	483.566514852283	11
0	4410	483.887917594675	12
0	4412	484.152081426489	11
0	4414	484.218381600793	10
0	4417	484.249480751499	11
0	4418	484.278915235824	10
0	4420	484.356803510145	9
0	4423	484.873429693293	10
0	4425	484.903256544363	11
0	4427	485.066708645149	10
0	4430	485.075480697375	11
0	4431	485.311013315216	10
0	4434	485.708615909608	11
0	4437	486.258675856481	12
0	4438	486.565416794477	11
0	4440	486.96951209824	10
0	4443	487.272794886392	9
0	4445	487.536391963631	8
0	4448	487.92358544225	9
0	4451	488.158118666988	10
0	4452	488.184325713239	9
0	4455	488.376456504264	10
0	4456	488.633968982698	9
0	4459	489.062985581416	8
0	4462	490.104425817654	7
0	4464	490.282599026343	6
0	4466	490.399043296939	5
0	4469	490.562314621631	6
0	4471	491.321549828884	5
0	4473	491.517004909371	4
0	4475	491.52936451286	3
0	4478	492.099362123999	2
0	4480	492.185443829955	1
0	4482	492.239179853052	0
0	4489	492.629379823141	1
0	4490	492.672507691214	0
0	4503	494.385415298654	1
0	4504	494.41001051309	0
0	4512	495.72915629954	1
0	4515	496.129515774205	2
0	4516	496.352280987513	1
0	4518	496.61833419393	0
0	4527	498.120616411633	1
0	4528	498.492567288004	0
0	4531	498.567633785898	1
0	4532	498.700092684474	0
0	4540	499.136891598005	1
0	4541	499.240529054156	0
0	4548	499.822007307563	1
0	4549	499.90858589469	0
0	4559	502.497109058667	1
0	4560	502.611545848902	0
0	4567	502.966764967165	1
0	4569	503.491821966366	0
0	4573	504.161100031446	1
0	4574	504.504860778786	0
0	4582	505.181322444526	1
0	4584	505.440619742703	2
0	4585	505.46116981277	1
0	4588	505.486104986638	2
0	4591	506.52763430752	3
0	4593	506.565981036035	4
0	4595	506.903601643593	5
0	4597	507.081083947228	4
0	4600	507.535745330911	5
0	4601	507.774496964626	4
0	4604	507.776655353526	5
0	4607	508.581038010642	6
0	4608	508.722389348989	5
0	4611	508.767244497819	6
0	4612	508.819707221573	5
0	4616	509.128661123672	6
0	4618	509.203164582723	7
0	4619	509.303684478599	6
0	4622	509.310994642826	7
0	4623	509.348865223186	6
0	4625	509.490534053325	5
0	4628	509.616193327189	6
0	4629	509.758149523747	5
0	4632	510.111173284871	4
0	4634	510.141245012313	3
0	4636	510.312737602292	2
0	4639	510.354096615156	3
0	4641	510.434174976776	4
0	4642	510.756724334577	3
0	4646	511.00563708939	4
0	4648	511.945302297243	5
0	4651	512.212909727862	6
0	4653	512.281105402367	7
0	4656	513.199402991258	8
0	4658	513.230211941623	9
0	4659	513.320701091458	8
0	4662	513.445812065802	9
0	4664	513.517994459602	10
0	4666	513.632307328393	11
0	4667	513.722360171651	10
0	4670	513.871052290952	11
0	4672	513.892743306912	12
0	4674	514.189093049435	11
0	4677	514.254011053925	12
0	4678	514.45197669268	11
0	4681	514.576079932504	12
0	4683	514.611611457427	13
0	4684	514.618243934601	12
0	4687	514.741584990822	13
0	4690	515.289899975491	14
0	4691	515.876323051722	13
0	4695	516.064608826798	14
0	4696	516.233867447182	13
0	4698	516.416242612407	12
0	4700	516.569117011619	11
0	4703	516.705380578302	12
0	4704	516.754702083115	11
0	4706	516.762657326058	10
0	4709	516.86505872675	11
0	4711	517.079370144021	10
0	4713	517.198636448572	9
0	4715	517.214633010032	8
0	4717	517.753839560306	7
0	4720	517.827602495793	8
0	4722	518.310439483199	7
0	4725	518.593294675605	8
0	4726	518.897943114952	7
0	4730	519.325789111361	8
0	4731	519.4426529634	7
0	4734	519.572353246275	8
0	4735	519.952295590185	7
0	4738	520.059699721502	6
0	4740	520.97606201026	5
0	4744	521.504229691116	6
0	4746	521.518985731289	7
0	4747	521.627493348957	6
0	4749	521.641440517805	5
0	4752	521.655610901585	6
0	4753	521.78488872111	5
0	4755	521.841318801882	4
0	4758	522.063242028511	3
0	4761	522.123386877844	4
0	4762	522.602605995756	3
0	4764	522.664361612162	2
0	4766	522.85111989556	1
0	4769	522.983614077233	2
0	4771	523.019424786521	1
0	4773	523.061018211258	0
0	4776	523.360392097242	1
0	4777	523.450761528289	0
0	4780	523.517474046903	1
0	4781	523.691830839011	0
0	4799	526.364726389441	1
0	4800	526.411249087207	0
0	4804	527.797624830189	1
0	4805	527.989252174326	0
0	4809	528.07083857202	1
0	4810	528.077956085162	0
0	4817	528.634959286024	1
0	4819	529.026590186221	0
0	4822	529.513097218678	1
0	4823	529.625786459739	0
0	4831	530.416277681116	1
0	4832	530.416747557687	0
0	4835	530.669329121848	1
0	4836	530.773105749545	0
0	4858	533.426815096026	1
0	4860	533.886996676891	2
0	4861	533.964998526239	1
0	4864	534.491918167525	0
0	4867	534.586708070452	1
0	4868	534.594292753955	0
0	4872	535.28262490888	1
0	4874	535.826248193414	2
0	4876	536.401465526988	1
0	4878	536.412578780458	0
0	4881	536.759590529054	1
0	4883	536.943337181897	2
0	4885	537.014679939651	1
0	4888	537.985834730833	2
0	4891	538.108468058353	3
0	4892	538.127531383968	2
0	4895	538.130818059655	3
0	4896	538.255466203827	2
0	4899	538.440857067266	3
0	4900	538.566956086208	2
0	4902	538.609887850487	1
0	4905	538.701710600914	2
0	4907	538.745737372004	3
0	4909	539.837753280009	2
0	4911	539.919733757888	1
0	4913	539.933980208579	0
0	4921	540.62171833378	1
0	4923	540.931438042656	2
0	4925	540.98984405092	3
0	4927	541.419571104375	2
0	4930	542.061258056049	1
0	4932	542.30155038162	0
0	4948	543.882279553954	1
0	4950	544.227369579889	0
0	4994	549.529587964789	1
0	4996	549.597218462762	2
0	4997	549.691998265832	1
0	4999	549.764867087508	0
0	5013	552.25014343867	1
0	5014	552.758944613849	0
0	5036	555.998472111999	1
0	5038	556.201830716675	0
0	5050	557.041053928219	1
0	5051	557.077616095126	0
0	5058	557.992154208859	1
0	5061	558.012069232507	2
0	5062	558.210406064911	1
0	5065	558.297769596332	2
0	5067	558.375546247334	3
0	5070	559.525100348295	4
0	5072	559.587011545966	5
0	5074	559.676085708192	6
0	5075	559.838496664726	5
0	5077	559.952299557338	4
0	5079	559.998719735735	3
0	5082	560.051444984812	2
0	5085	560.271810156845	3
0	5086	560.385186541521	2
0	5089	560.544375106675	3
0	5090	560.658278960238	2
0	5093	560.957217855939	3
0	5095	561.582023106314	2
0	5098	561.691776596127	3
0	5099	561.902137293373	2
0	5101	561.915537442085	1
0	5104	562.030505194181	0
0	5111	562.686689423032	1
0	5113	563.035739803607	0
0	5120	563.79860231325	1
0	5123	564.675246656036	2
0	5124	564.728432757945	1
0	5127	564.866150547345	2
0	5129	564.868008883016	3
0	5130	564.903155699062	2
0	5132	564.952867554138	1
0	5135	565.020159616521	0
0	5153	568.031096413599	1
0	5154	568.446909506875	0
0	5179	570.714271716732	1
0	5180	570.766728680206	0
0	5200	571.901082601488	1
0	5202	571.921502491401	2
0	5204	572.149621327922	1
0	5207	572.368484754348	2
0	5209	572.410419375529	3
0	5210	572.832049674538	2
0	5213	572.870101796741	3
0	5215	572.874077321315	4
0	5217	572.894003766713	5
0	5220	573.051175058695	6
0	5221	573.246991088341	5
0	5224	573.77300203935	6
0	5226	573.829754964997	7
0	5228	573.834305609317	8
0	5229	573.903206007832	7
0	5232	573.940731524778	8
0	5235	574.038335936267	9
0	5237	574.0549692666	10
0	5238	574.132664178758	9
0	5241	574.414068274031	10
0	5242	574.618821999481	9
0	5244	574.624826851433	8
0	5247	574.631830702087	9
0	5248	574.691922415351	8
0	5251	574.819315512583	9
0	5252	574.871295204693	8
0	5256	575.14753740105	9
0	5258	575.26382681915	10
0	5261	576.040517233558	11
0	5262	576.144431855329	10
0	5265	576.200171537685	11
0	5267	576.309558622603	12
0	5269	576.32472696097	13
0	5270	576.329279078902	12
0	5272	576.364466909491	11
0	5275	576.45293563355	12
0	5277	576.602233472354	13
0	5278	576.753410272026	12
0	5282	577.169915141446	13
0	5283	577.491008149675	12
0	5286	577.588042238454	13
0	5287	577.609599056662	12
0	5289	577.998619057291	11
0	5293	578.331282545627	12
0	5294	578.425648774217	11
0	5297	578.586349934371	12
0	5298	578.679135711249	11
0	5300	578.810355993359	10
0	5302	578.88885974813	9
0	5305	579.031175002065	8
0	5307	579.106272074919	7
0	5310	579.298764122649	8
0	5311	579.31093044526	7
0	5313	579.465635629956	6
0	5316	579.574328701154	7
0	5317	579.787077143064	6
0	5320	579.816081001776	7
0	5322	580.531445059251	6
0	5325	580.554415549595	7
0	5326	580.932335759718	6
0	5330	581.780591126128	7
0	5332	581.818276312442	8
0	5334	582.483858891308	7
0	5337	582.545925565973	8
0	5338	582.980818869984	7
0	5341	583.164744465497	6
0	5344	583.276959041289	7
0	5345	583.509920849492	6
0	5348	584.132351553746	5
0	5350	584.17357333833	4
0	5352	584.235879511545	3
0	5355	584.333737738411	4
0	5356	584.841208567402	3
0	5359	584.861645989397	4
0	5361	584.892064409854	5
0	5363	585.274592807992	4
0	5365	585.524697313595	3
0	5368	585.725020221902	4
0	5369	585.919979297443	3
0	5372	586.59272880762	2
0	5375	586.90186635219	3
0	5377	587.145207441251	2
0	5379	587.150391797361	1
0	5382	587.31363203934	2
0	5384	587.476531900671	3
0	5386	587.872408361809	4
0	5387	587.874884144489	3
0	5391	588.046207081993	4
0	5392	588.118847334691	3
0	5394	588.221422156264	2
0	5397	588.519313480713	3
0	5398	588.56939363987	2
0	5400	588.727117567585	1
0	5403	589.047899472383	0
0	5406	589.256961422668	1
0	5408	589.271347888165	2
0	5409	589.327170916214	1
0	5411	589.425742635887	0
0	5414	589.680984689059	1
0	5416	590.255230690408	0
0	5419	590.290920936905	1
0	5422	591.593565343386	2
0	5424	591.727481460452	3
0	5425	591.886455964656	2
0	5428	592.581970542929	1
0	5431	593.2911020917	0
0	5434	593.627743928365	1
0	5435	593.665436129022	0
0	5438	593.962229383957	1
0	5441	594.275657815776	2
0	5443	594.768311378195	3
0	5445	594.923131886489	4
0	5448	595.040132730383	5
0	5449	595.136264271922	4
0	5451	595.202236311546	3
0	5453	595.317640706804	2
0	5456	595.337604975127	3
0	5457	595.930740010497	2
0	5459	595.95483703568	1
0	5463	596.018772469924	2
0	5466	597.057863081426	3
0	5467	597.319903759319	2
0	5469	597.361416424446	1
0	5471	597.404131813378	0
0	5474	597.463448661628	1
0	5475	597.689307384731	0
0	5511	602.449537787916	1
0	5512	602.606582959816	0
0	5524	603.628299465787	1
0	5526	603.965510324041	2
0	5527	603.995681597491	1
0	5530	604.058061498978	0
0	5537	604.759631024347	1
0	5539	604.886250584179	2
0	5542	605.274390543439	3
0	5543	605.321666316648	2
0	5545	605.556911259975	1
0	5547	605.970185682564	0
0	5556	607.665354056196	1
0	5559	608.019863966191	2
0	5561	608.079264010472	3
0	5562	608.159103200629	2
0	5564	608.216258097885	1
0	5567	608.44122490985	2
0	5569	608.503520300442	3
0	5571	608.723747346491	4
0	5573	608.76674221425	5
0	5574	608.779248360594	4
0	5577	608.848883080565	5
0	5578	608.87333619761	4
0	5580	608.975883520849	3
0	5584	609.062324246426	4
0	5585	609.218059136776	3
0	5587	609.84503397396	2
0	5591	610.064348296055	3
0	5593	610.430215050101	4
0	5595	611.086041656867	3
0	5598	611.450709414685	4
0	5600	611.762235248909	5
0	5602	612.810855683735	4
0	5604	612.897220691608	3
0	5607	612.995639779856	4
0	5609	613.061395752296	3
0	5612	613.273622068793	4
0	5614	613.29635270353	5
0	5615	613.357343946196	4
0	5618	613.375171757169	5
0	5621	614.105201618743	6
0	5622	614.432976803926	5
0	5626	615.002921539933	6
0	5627	615.159380558525	5
0	5630	615.200883610254	6
0	5632	615.261522687832	7
0	5635	616.103596561572	8
0	5636	616.37317296876	7
0	5638	616.42340747066	6
0	5640	616.436721777043	5
0	5642	616.49747430295	4
0	5645	616.661383470097	5
0	5646	616.701036969641	4
0	5648	616.818403365153	3
0	5651	616.853076657989	4
0	5652	616.861969262422	3
0	5656	617.038501631601	4
0	5658	617.505704341782	5
0	5659	617.540677769306	4
0	5662	618.414953002621	3
0	5664	618.90856488354	2
0	5666	618.976805730354	1
0	5669	619.024657805565	0
0	5672	619.084695144539	1
0	5674	619.113196076993	2
0	5675	619.292303935668	1
0	5677	619.940012852669	0
0	5680	619.948594808935	1
0	5682	620.504368499519	0
0	5685	620.805319508768	1
0	5687	621.011956413636	0
0	5690	621.678753144368	1
0	5691	621.771886311887	0
0	5694	621.855183622421	1
0	5696	622.059148552592	0
0	5714	625.256788838466	1
0	5716	625.860874377712	2
0	5718	625.89626610178	3
0	5720	626.096552969504	2
0	5723	626.243668564527	3
0	5724	626.702877355836	2
0	5726	626.837164321876	1
0	5729	626.98703198739	2
0	5732	627.135435806554	3
0	5734	627.575229474999	4
0	5735	627.939958500482	3
0	5738	628.400259615823	2
0	5740	628.507330687945	1
0	5742	628.632530306461	0
0	5754	629.5689924221	1
0	5756	629.588091432517	2
0	5757	629.694050231535	1
0	5761	630.330071611659	2
0	5763	630.71523738675	3
0	5764	630.745116467996	2
0	5767	630.76373969191	3
0	5770	631.1663205102	4
0	5771	631.240933201298	3
0	5773	631.479051591618	2
0	5776	631.762801103169	3
0	5777	631.882538914585	2
0	5779	631.93255833649	1
0	5781	631.976440292608	0
0	5794	633.522907878411	1
0	5796	633.530452647064	2
0	5798	633.836133670493	3
0	5800	634.113184703685	2
0	5802	634.196526589334	1
0	5804	634.221438263786	0
0	5807	634.353104042067	1
0	5809	634.8734296876	2
0	5811	635.124071675836	1
0	5813	635.193936820027	0
0	5816	635.217489459821	1
0	5818	635.301073613479	2
0	5820	635.365357638157	3
0	5821	635.378874985288	2
0	5823	635.381364081186	1
0	5826	635.435526200577	2
0	5827	635.484941235103	1
0	5829	635.788735018357	0
0	5837	636.613349027544	1
0	5838	636.806409636091	0
0	5855	638.137142992672	1
0	5856	638.327824944812	0
0	5870	641.814862750616	1
0	5871	641.929206370863	0
0	5879	642.849200281548	1
0	5882	643.146740789669	2
0	5883	643.335691294139	1
0	5885	643.401398773264	0
0	5888	643.965199733897	1
0	5890	644.028597168109	0
0	5893	644.825105175768	1
0	5896	645.007001124269	2
0	5897	645.35244570596	1
0	5899	645.957639181689	0
0	5926	649.812449320612	1
0	5927	649.915318889817	0
0	5930	649.931272159369	1
0	5933	650.569621705968	2
0	5935	650.746511463237	3
0	5937	651.052469396118	2
0	5939	651.269233182113	1
0	5942	651.36412929308	2
0	5944	651.573576482399	3
0	5945	651.795836443329	2
0	5948	651.809049367614	3
0	5950	652.086404826905	2
0	5953	652.227835997512	3
0	5954	652.469894647317	2
0	5956	652.528724264725	1
0	5958	652.604797971874	0
0	5985	656.238423760099	1
0	5987	656.5867736287	2
0	5988	656.615067775687	1
0	5990	656.791652232624	0
0	6017	660.286243274503	1
0	6018	660.319961067344	0
0	6021	660.518228121414	1
0	6022	660.542582918547	0
0	6025	660.674290142956	1
0	6026	660.741819808701	0
0	6033	660.843173583069	1
0	6035	661.133990156315	0
0	6048	663.847780877022	1
0	6050	663.865708369632	2
0	6052	663.965336818903	3
0	6054	664.069018209289	2
0	6056	664.117741102441	1
0	6059	664.171970422501	2
0	6060	664.462363827213	1
0	6062	664.938620942685	0
0	6074	665.782708352563	1
0	6075	665.974541323246	0
0	6079	666.021457327023	1
0	6080	666.182246767427	0
0	6083	666.57098893822	1
0	6085	666.57178685851	2
0	6087	666.650377072959	3
0	6090	667.405424547593	4
0	6091	667.825350391576	3
0	6095	668.223129397415	4
0	6096	668.500201219088	3
0	6099	668.665430968273	4
0	6100	668.808211550982	3
0	6102	668.820334910724	2
0	6105	669.022129587082	1
0	6107	669.308492580002	0
0	6115	670.626386800003	1
0	6117	671.271147236364	0
0	6120	671.281863048462	1
0	6122	671.418252447668	2
0	6123	671.783921099073	1
0	6126	672.180667061402	0
0	6134	673.02745776814	1
0	6135	673.14808071361	0
0	6138	673.164694391933	1
0	6139	673.182811716225	0
0	6148	675.347971415361	1
0	6150	675.49371866118	2
0	6152	676.088598931851	1
0	6155	676.202764154942	2
0	6157	676.93861707093	3
0	6160	677.011825969826	4
0	6162	677.327332145187	5
0	6163	677.355669190159	4
0	6165	677.404514616704	3
0	6167	677.578684140994	2
0	6169	677.778789943965	1
0	6171	677.848291630539	0
0	6184	679.483646176639	1
0	6186	679.827458798203	2
0	6189	680.076266855862	3
0	6191	680.153995599753	4
0	6192	680.207789392878	3
0	6194	680.857902662755	2
0	6197	680.970919717028	3
0	6200	681.233616489797	4
0	6201	681.357728470109	3
0	6204	681.598970727697	4
0	6206	681.641499855748	5
0	6207	681.932421640271	4
0	6209	681.943451441767	3
0	6212	682.018968662454	2
0	6214	682.171767932838	1
0	6216	682.230441159034	0
0	6219	682.530535810827	1
0	6220	682.592566664352	0
0	6228	683.245093955016	1
0	6229	683.549122395728	0
0	6232	683.580241566906	1
0	6233	683.610967552471	0
0	6246	685.40372125851	1
0	6247	685.511164841822	0
0	6261	688.359401311054	1
0	6262	688.514161125624	0
0	6287	690.235736856604	1
0	6288	690.240675271431	0
0	6296	691.698923588349	1
0	6298	691.811565712961	2
0	6301	692.254127227402	3
0	6302	692.343544991711	2
0	6305	692.4731299647	3
0	6306	692.799781787208	2
0	6309	693.038829078804	1
0	6312	693.146563416725	2
0	6314	693.414155046903	3
0	6316	693.633702046743	4
0	6318	693.656128781811	5
0	6320	693.757924448557	6
0	6322	693.893297357141	7
0	6324	693.994664274688	8
0	6326	694.402794602411	7
0	6328	694.53189041686	6
0	6331	694.697471972891	7
0	6332	694.838937841255	6
0	6336	695.248230923837	7
0	6338	695.322383085786	8
0	6340	695.364616677297	9
0	6342	695.972724306091	10
0	6344	696.212739137917	9
0	6346	696.412270914232	8
0	6349	696.493545457095	9
0	6351	696.533492698495	10
0	6352	696.597703516458	9
0	6355	696.697418406231	10
0	6357	696.960406231023	11
0	6360	697.162326129291	12
0	6361	697.553279322587	11
0	6363	697.779457589319	10
0	6366	698.19305460128	9
0	6369	699.201998190292	8
0	6371	699.384279476438	7
0	6374	699.441711930395	8
0	6375	699.71765327318	7
0	6379	700.062852178282	8
0	6380	700.337836910367	7
0	6383	700.678481240105	8
0	6385	701.038417139441	7
0	6387	701.136407004809	6
0	6389	701.348905327961	5
0	6391	701.397738193472	4
0	6393	701.461475935202	3
0	6395	701.976522824769	2
0	6398	702.182084647602	1
0	6400	702.273043602498	0
0	6403	702.699732016639	1
0	6405	702.699825382295	2
0	6406	702.91226858652	1
0	6409	703.59119421799	0
0	6426	705.02989290985	1
0	6427	705.052798588121	0
0	6430	705.454735178563	1
0	6431	705.501236596617	0
0	6434	705.649609807545	1
0	6437	706.061692070544	2
0	6438	706.25410113336	1
0	6440	706.442344573378	0
0	6443	706.686257384968	1
0	6445	706.96573920486	2
0	6449	708.030335050546	3
0	6451	708.033988875873	4
0	6452	708.046291905123	3
0	6455	708.050977906984	4
0	6457	709.025024727296	3
0	6459	709.174291315277	2
0	6461	709.292925288287	1
0	6463	709.407080005281	0
0	6471	710.066353179322	1
0	6472	710.123218132251	0
0	6479	710.81804951821	1
0	6481	711.341501968444	0
0	6484	711.704606452694	1
0	6485	711.878537450946	0
0	6503	714.136676641253	1
0	6505	714.20603843737	2
0	6506	714.473677291272	1
0	6509	714.593980476789	2
0	6511	714.600855225723	3
0	6514	715.074463327575	4
0	6516	715.717458200388	5
0	6518	715.887934068694	6
0	6520	716.224412853235	5
0	6522	716.476003043026	4
0	6525	717.261126446421	3
0	6527	717.356245358116	2
0	6530	717.705916599957	3
0	6532	717.715626301194	4
0	6535	718.137462699666	5
0	6537	718.311993445239	6
0	6538	718.345370994943	5
0	6540	718.541784185478	4
0	6542	718.942577730051	3
0	6544	718.992216490501	2
0	6548	719.257325988805	3
0	6549	719.301852683189	2
0	6552	719.318177185931	3
0	6554	719.637686696987	4
0	6555	719.92523332835	3
0	6559	720.546961502177	4
0	6561	720.98676134416	5
0	6563	721.173863180357	4
0	6565	721.887700266065	3
0	6569	722.698492041536	4
0	6571	723.191643170651	3
0	6574	723.223689376026	4
0	6576	723.338641272541	5
0	6578	723.870645811347	6
0	6579	723.878502426832	5
0	6581	723.889967861227	4
0	6585	724.251219122752	5
0	6586	724.512868301929	4
0	6588	724.555934338459	3
0	6590	724.898581201688	2
0	6593	724.978501175592	3
0	6596	725.185994591309	4
0	6597	725.464352284199	3
0	6600	725.694006675609	4
0	6601	725.841573803821	3
0	6604	726.036565886063	2
0	6607	726.103352394907	3
0	6608	726.311985278924	2
0	6610	726.726396404847	1
0	6612	726.826417324063	0
0	6616	727.682593321381	1
0	6617	727.958167873697	0
0	6621	728.111172900845	1
0	6622	728.175223334586	0
0	6635	730.485925949306	1
0	6637	730.511725810428	2
0	6638	730.719650422056	1
0	6640	730.766625447905	0
0	6643	730.784874614456	1
0	6644	730.885435930451	0
0	6647	730.940162962662	1
0	6649	731.207282667815	0
0	6652	731.241342462042	1
0	6654	731.531024357497	2
0	6656	731.536345439243	3
0	6657	731.598407367255	2
0	6659	731.680657842762	1
0	6662	732.988970386221	0
0	6674	733.832444912297	1
0	6676	734.339471128489	0
0	6680	735.179839749622	1
0	6681	735.304412557499	0
0	6688	735.656400229014	1
0	6689	735.779339787013	0
0	6703	738.26749691948	1
0	6706	739.064652356073	2
0	6708	739.282737763873	3
0	6709	739.438029360086	2
0	6713	740.234484268589	3
0	6714	740.429047243201	2
0	6716	740.665632792297	1
0	6718	740.695726541606	0
0	6721	740.786974344997	1
0	6722	740.936264225133	0
0	6731	742.648889148459	1
0	6732	742.866732622646	0
0	6736	743.464245928286	1
0	6738	743.70940393619	2
0	6740	744.231298640001	1
0	6743	744.289685064819	2
0	6744	744.642490878113	1
0	6747	744.732785595451	2
0	6749	745.190134559717	1
0	6752	745.238346732681	2
0	6754	745.628509643512	3
0	6755	745.964330681021	2
0	6758	746.942876665638	1
0	6761	747.07490967318	0
0	6789	752.510543083365	1
0	6791	752.538230257222	2
0	6792	752.789383182925	1
0	6794	752.997917107931	0
0	6798	753.179481138861	1
0	6799	753.262286931147	0
0	6821	756.634711994707	1
0	6822	756.63673997123	0
0	6826	757.070466093135	1
0	6828	757.735461623575	2
0	6830	758.048839765496	1
0	6833	758.206091072269	2
0	6834	758.736394165097	1
0	6837	759.233717525836	0
0	6840	759.493802007293	1
0	6841	759.496294737117	0
0	6849	760.179702335653	1
0	6851	760.353996490782	2
0	6852	760.367368996717	1
0	6855	760.862168880134	2
0	6857	760.901259597506	3
0	6860	761.090226442031	4
0	6862	761.351053916089	5
0	6863	761.895491550902	4
0	6866	762.201290420699	3
0	6868	762.5586978056	2
0	6870	762.565017918212	1
0	6873	762.993326074024	2
0	6875	763.020896376708	1
0	6878	763.151272457773	2
0	6880	763.486410902076	3
0	6881	763.536321865606	2
0	6883	763.571416097602	1
0	6885	763.791111081269	0
0	6894	765.706146601813	1
0	6897	766.103079951561	2
0	6898	766.136066451319	1
0	6900	766.223223910574	0
0	6903	766.676445653608	1
0	6904	766.87856949856	0
0	6908	767.232944607758	1
0	6910	767.368863434838	2
0	6911	767.445429256163	1
0	6913	767.79266590377	0
0	6916	767.96892592618	1
0	6919	768.047301308087	2
0	6920	768.152602135327	1
0	6923	768.768646067468	2
0	6926	769.11875997777	3
0	6927	769.119016703533	2
0	6930	769.603660536126	3
0	6933	770.216379296708	4
0	6935	770.388572206999	5
0	6936	770.396683628552	4
0	6939	770.407896709492	5
0	6941	770.548978242783	6
0	6944	771.168787429734	7
0	6946	771.52050078962	8
0	6948	771.846285257145	9
0	6949	771.981576738128	8
0	6952	771.986103068164	9
0	6955	772.009506494713	10
0	6956	772.239147172982	9
0	6959	772.535386232842	10
0	6962	773.46875772897	11
0	6964	773.851088921592	12
0	6966	774.099771488821	11
0	6969	774.127392960348	12
0	6970	774.178075202733	11
0	6973	774.191945557387	12
0	6974	774.456609284365	11
0	6976	774.960699757911	10
0	6979	775.089336741028	9
0	6981	775.224928780007	8
0	6984	775.249655934292	9
0	6986	775.38330155995	10
0	6987	775.502617852956	9
0	6989	775.516174421764	8
0	6992	775.588904173714	9
0	6993	775.600591501531	8
0	6995	775.644095015604	7
0	6997	775.983078443442	6
0	7000	776.673450119644	5
0	7003	777.201375891193	4
0	7006	777.919203187507	5
0	7009	778.006218601281	6
0	7011	778.703182115624	7
0	7013	778.872584876238	8
0	7016	779.071887709034	9
0	7017	779.14506320281	8
0	7019	779.537840598599	7
0	7022	780.036485754094	6
0	7025	780.400433860297	7
0	7026	780.426465970455	6
0	7028	780.669078708265	5
0	7032	781.311214569862	6
0	7034	781.387782278024	7
0	7036	781.537911905061	8
0	7037	781.765469862731	7
0	7040	781.816749467139	8
0	7042	782.221037472631	7
0	7044	782.249985890345	6
0	7046	782.303468824852	5
0	7048	782.406196155549	4
0	7050	782.940528595174	3
0	7054	783.149226388869	4
0	7055	783.202947747911	3
0	7058	783.294083613853	4
0	7059	783.447449378385	3
0	7061	783.604235755676	2
0	7063	783.978094539559	1
0	7066	783.993101887927	2
0	7069	785.012194813021	1
0	7071	785.229504313284	0
0	7078	785.962126285121	1
0	7080	786.416945889898	0
0	7083	786.681089351943	1
0	7085	786.84074432558	2
0	7087	787.015985873236	1
0	7090	787.08023249832	2
0	7092	787.336548973434	3
0	7094	787.592082346287	4
0	7095	787.769495485946	3
0	7097	787.875190967502	2
0	7100	788.441881910609	1
0	7102	788.616307537784	0
0	7114	789.555134566793	1
0	7115	789.606414689501	0
0	7118	789.873803691914	1
0	7121	790.051134924807	2
0	7123	790.283690560652	3
0	7124	790.481635504492	2
0	7126	790.763365670112	1
0	7129	791.28470469916	0
0	7136	791.888227289504	1
0	7138	791.953953863243	2
0	7141	792.266222047262	3
0	7143	792.329137535954	4
0	7144	792.329723275329	3
0	7147	792.462174901509	4
0	7149	792.626373733456	5
0	7150	792.742968331053	4
0	7153	792.811084863121	5
0	7154	792.93524168014	4
0	7157	793.27149210354	3
0	7159	793.394170505585	2
0	7161	793.710323642141	1
0	7163	793.966112257666	0
0	7171	794.361632637791	1
0	7172	794.959033514123	0
0	7176	795.055466660655	1
0	7178	795.508801520744	2
0	7179	795.572245585812	1
0	7182	795.609170394211	2
0	7183	795.654667544621	1
0	7186	795.7135439333	2
0	7188	795.965789999541	3
0	7190	796.592832125254	2
0	7192	796.89194465707	1
0	7195	796.926841050503	2
0	7198	797.148321199047	3
0	7200	797.154822120893	4
0	7202	797.805410549618	5
0	7205	798.137630295859	6
0	7206	798.409127137825	5
0	7210	799.229683931325	6
0	7212	799.241439357157	7
0	7214	799.620126256659	8
0	7215	799.712747454182	7
0	7218	799.734695349168	8
0	7219	799.77111667385	7
0	7222	799.95809990616	8
0	7224	800.125313176997	7
0	7227	800.698631361534	8
0	7229	800.751702931344	9
0	7230	800.772665143774	8
0	7232	800.981653342223	7
0	7235	801.10330331838	6
0	7237	801.12151555619	5
0	7239	801.133705414392	4
0	7242	801.204697352448	5
0	7243	801.247627182203	4
0	7246	801.31183925005	5
0	7247	801.728171227245	4
0	7249	801.893843468693	3
0	7251	801.916335229629	2
0	7254	802.046305000651	1
0	7256	802.178505560088	0
0	7259	802.420328873851	1
0	7261	802.637575396765	2
0	7263	803.489530541464	1
0	7265	803.723368173083	0
0	7268	803.76054789451	1
0	7269	803.803257002861	0
0	7281	804.8004518779	1
0	7283	804.936727784381	2
0	7286	805.082383770875	3
0	7287	805.383291231984	2
0	7290	805.479943806519	3
0	7293	806.223230806108	4
0	7295	806.445485756533	5
0	7296	806.469601374999	4
0	7299	807.004756298715	3
0	7301	807.145293268599	2
0	7304	807.643255819337	3
0	7305	807.906215026423	2
0	7307	807.946900232809	1
0	7311	808.743271744773	2
0	7312	808.806589980794	1
0	7314	808.818609089179	0
0	7318	809.899164909717	1
0	7321	810.101220078087	2
0	7322	810.397769481867	1
0	7325	811.08644856664	0
0	7328	811.423837539778	1
0	7330	811.946158575862	2
0	7332	812.265685212255	1
0	7335	812.492360489031	2
0	7336	812.773555109743	1
0	7339	812.902362971335	2
0	7341	813.320628833634	1
0	7343	813.358912054987	0
0	7346	813.363719818932	1
0	7348	813.447050396074	2
0	7349	813.976220428218	1
0	7353	814.289650402887	2
0	7355	814.477432866001	3
0	7356	814.784933622194	2
0	7358	814.905222453874	1
0	7361	814.907146016717	2
0	7363	815.127671196111	1
0	7365	815.39297710468	0
0	7372	815.992980536575	1
0	7374	816.525752987649	0
0	7386	817.808797559265	1
0	7389	818.859103074925	2
0	7390	818.945420680717	1
0	7393	819.028531610352	0
0	7400	819.585399190875	1
0	7401	819.690684511009	0
0	7404	819.9028548168	1
0	7406	819.990619867369	2
0	7408	820.148124633935	1
0	7410	820.203183609738	0
0	7413	820.299265790875	1
0	7415	820.681811035791	2
0	7417	820.694272303554	3
0	7420	821.17776452392	4
0	7422	821.33595383057	5
0	7424	821.38799336363	6
0	7425	821.564516408646	5
0	7427	821.582485340862	4
0	7430	821.645835773161	5
0	7432	821.654429563206	6
0	7433	821.909537176261	5
0	7437	822.063837841176	6
0	7438	822.187410647552	5
0	7440	822.819184436346	4
0	7443	823.036847221888	3
0	7445	823.257193766286	2
0	7448	823.297960065705	3
0	7449	823.302810251291	2
0	7452	823.429237558584	3
0	7453	823.844742948203	2
0	7456	824.206440422511	1
0	7458	824.397677052519	0
0	7461	824.566459306543	1
0	7462	824.573291570243	0
0	7470	825.704693665984	1
0	7472	825.769254933169	2
0	7474	826.534347428387	1
0	7476	826.978102205984	0
0	7480	827.161418435785	1
0	7482	827.373184488705	2
0	7484	827.382036768549	3
0	7486	827.599773285837	4
0	7488	827.699493520517	5
0	7490	827.85416235401	6
0	7492	828.088332171476	5
0	7494	828.195780636285	4
0	7497	828.345488316197	5
0	7498	828.429927168583	4
0	7500	828.831784856915	3
0	7504	829.011983978005	4
0	7506	829.190719611196	5
0	7507	829.237166644834	4
0	7509	829.304192369834	3
0	7512	829.386409405943	4
0	7514	829.766227127568	5
0	7516	829.834355015678	6
0	7517	829.944277424515	5
0	7521	830.276173760061	6
0	7522	830.472643859654	5
0	7525	830.83002786948	6
0	7527	830.899239647348	7
0	7529	831.284776942738	6
0	7532	831.45267497145	7
0	7534	831.831897505703	8
0	7537	832.355913266249	9
0	7538	832.539433187124	8
0	7541	832.703179434373	9
0	7543	832.866004878295	10
0	7546	833.03099908713	11
0	7548	833.348487658786	12
0	7549	833.8083338481	11
0	7552	834.737137383557	10
0	7555	834.823898560516	11
0	7557	834.982066667821	12
0	7560	835.113779564693	13
0	7562	835.224487554682	14
0	7563	835.382945086978	13
0	7565	835.483548650408	12
0	7568	835.505306281479	13
0	7570	835.58792182331	14
0	7573	836.067859891504	15
0	7574	836.143456149875	14
0	7577	836.38746445107	15
0	7578	836.514019781733	14
0	7580	836.720680272208	13
0	7583	836.930090889733	14
0	7585	837.068630021395	13
0	7587	837.223488114479	12
0	7590	837.948670641744	13
0	7593	838.670339749812	14
0	7595	838.983169801148	15
0	7597	839.23207872004	14
0	7599	839.634740725249	13
0	7601	839.686050200055	12
0	7604	839.880856798494	13
0	7605	839.983659015922	12
0	7609	840.213574534671	13
0	7610	840.275863904528	12
0	7613	840.311622054613	13
0	7614	840.741186890953	12
0	7617	840.777542389555	13
0	7618	840.90644716716	12
0	7621	841.052806665757	11
0	7624	841.255348543937	12
0	7626	841.608656122569	13
0	7628	841.669817825625	14
0	7629	841.896253439901	13
0	7632	842.41394904651	12
0	7635	842.523726696587	13
0	7636	842.588244820629	12
0	7638	842.969775918383	11
0	7641	843.830840495651	10
0	7644	844.015892377127	9
0	7647	844.562968221629	10
0	7649	844.783193104643	11
0	7650	844.784045997491	10
0	7653	845.129788793134	9
0	7656	845.490807131828	10
0	7658	845.864420476393	11
0	7661	846.182550800221	12
0	7663	846.189938016536	13
0	7665	846.792264147385	14
0	7666	846.846781900418	13
0	7669	847.484020774127	12
0	7671	847.597739730432	11
0	7673	847.736529422386	10
0	7676	847.769912659802	11
0	7677	847.887878353231	10
0	7680	848.010599448651	9
0	7682	848.040523416543	8
0	7685	848.117163730307	9
0	7687	848.438644432723	10
0	7689	848.612936894456	11
0	7691	848.82251057651	12
0	7693	848.952671694572	13
0	7695	849.280474359362	12
0	7698	849.369226328387	13
0	7700	850.776937679975	12
0	7703	850.812753357196	13
0	7706	851.13280601712	14
0	7708	851.219393660151	15
0	7709	851.253086047104	14
0	7711	851.536500416751	13
0	7713	851.739320034331	12
0	7715	851.810927592632	11
0	7718	852.008278860286	10
0	7720	852.190493347745	9
0	7722	852.424464135062	8
0	7724	852.968465705957	7
0	7727	853.066606595039	6
0	7729	853.287616823669	5
0	7732	853.448042156793	6
0	7734	853.724299356848	7
0	7737	854.165441381217	8
0	7739	854.372609163657	9
0	7740	854.60448913652	8
0	7743	854.700108926986	9
0	7745	854.895082331606	10
0	7748	855.107212023408	11
0	7749	855.252583440306	10
0	7752	855.363050405425	11
0	7753	855.500643556571	10
0	7756	855.51154044917	11
0	7757	855.544236257369	10
0	7759	855.656297826146	9
0	7761	855.697023758643	8
0	7763	855.763622463869	7
0	7766	855.877587314432	8
0	7768	855.909507248561	9
0	7771	856.208148030717	10
0	7773	856.375670504948	11
0	7775	856.45980256866	12
0	7776	856.645668417914	11
0	7780	857.225663118532	12
0	7781	857.229869006898	11
0	7783	857.292974234284	10
0	7786	857.373902373309	11
0	7787	857.395735144555	10
0	7790	857.985569155767	11
0	7792	858.024891070772	10
0	7794	858.39871526514	9
0	7796	858.437442811953	8
0	7799	858.727704089334	9
0	7802	859.275153335292	10
0	7803	859.557052045749	9
0	7807	860.239443059767	10
0	7808	860.349734898063	9
0	7811	860.594126396867	10
0	7813	860.655293806643	11
0	7815	860.899500665921	12
0	7818	861.070330827284	13
0	7820	861.151140991206	14
0	7821	861.217378547772	13
0	7824	861.232055818397	14
0	7826	861.53594108098	15
0	7828	861.584573978322	16
0	7830	861.887970902407	17
0	7831	861.963725267738	16
0	7833	861.971429629484	15
0	7836	862.209317030239	14
0	7838	862.32929162712	13
0	7840	862.335072864677	12
0	7842	862.338465669351	11
0	7844	862.716635396274	10
0	7847	862.915709992087	11
0	7850	863.295471229822	12
0	7852	863.383323713706	13
0	7853	863.569477473104	12
0	7857	864.270695546624	13
0	7858	864.552700270359	12
0	7862	865.11057658689	13
0	7864	865.118721984116	14
0	7865	865.321333178506	13
0	7868	865.422106143584	14
0	7869	865.846986377574	13
0	7872	866.265772483637	12
0	7874	866.289747396635	11
0	7877	866.358893051625	12
0	7879	866.577220987461	13
0	7880	866.609342534937	12
0	7883	867.041806985084	11
0	7885	867.266194318841	10
0	7887	867.844838054371	9
0	7890	868.110037327317	8
0	7892	868.420215966505	7
0	7895	868.713668940626	8
0	7897	868.765883111911	9
0	7898	868.816632948168	8
0	7900	868.848628327493	7
0	7903	869.182515036262	6
0	7905	869.650086906717	5
0	7908	869.831968800625	6
0	7910	870.100508103906	5
0	7912	870.734899815154	4
0	7916	871.111609240746	5
0	7917	871.146169926407	4
0	7920	871.148827994078	5
0	7922	871.330174988511	6
0	7923	871.497278321091	5
0	7925	871.546898726153	4
0	7927	871.689984297029	3
0	7929	871.707516771696	2
0	7932	871.719577203298	3
0	7934	871.869685019978	4
0	7936	872.243777203268	3
0	7938	872.562922807216	2
0	7940	872.996745887085	1
0	7944	873.532086414028	2
0	7946	873.833607658356	3
0	7947	873.861221400244	2
0	7952	875.167941520131	3
0	7954	875.292496391066	4
0	7956	875.47988874895	5
0	7958	875.596747135384	6
0	7960	876.191106839216	5
0	7962	876.308240995765	4
0	7964	876.73047689137	3
0	7967	876.912999002413	4
0	7969	877.152128555301	3
0	7972	877.153611443962	4
0	7974	877.344881041496	5
0	7975	877.478390835767	4
0	7977	877.690577346618	3
0	7980	877.821066735208	4
0	7981	877.908192699422	3
0	7984	877.932156335045	4
0	7985	877.981139560832	3
0	7988	878.168399662807	2
0	7991	878.49608486747	3
0	7992	878.901927773294	2
0	7995	879.116655293228	1
0	7998	879.158763680142	2
0	8000	879.249606382735	3
0	8001	879.334260246445	2
0	8003	879.571854810701	1
0	8005	879.593493365353	0
0	8008	879.871690007644	1
0	8011	880.65927748826	2
0	8012	880.948661351067	1
0	8015	881.121895917241	0
0	8018	881.534865807724	1
0	8020	881.781072743405	2
0	8023	882.214918589897	3
0	8024	882.352850446307	2
0	8026	882.728623853269	1
0	8029	882.806337030356	2
0	8031	883.176303123605	1
0	8033	883.44846090985	0
0	8041	884.506673813504	1
0	8042	884.537991713244	0
0	8045	884.579587348502	1
0	8047	884.693261430646	2
0	8050	885.115300977472	3
0	8051	885.18038057711	2
0	8053	885.186509417891	1
0	8055	885.360695511099	0
0	8076	887.897984696667	1
0	8079	888.016958743971	2
0	8081	888.098271939277	3
0	8083	888.146382119093	4
0	8085	888.699020659287	5
0	8086	888.729448558485	4
0	8089	888.900931873959	5
0	8091	889.166995928143	4
0	8094	889.571405865915	5
0	8096	889.638219427846	6
0	8099	890.05935198069	7
0	8101	890.231570760409	8
0	8103	890.642766523744	9
0	8104	890.790817456957	8
0	8107	891.159414675213	7
0	8109	891.607021562597	6
0	8112	891.661790446926	7
0	8113	891.964072212613	6
0	8117	892.056458313384	7
0	8119	892.413426222236	8
0	8121	892.48809811278	9
0	8122	892.50803024308	8
0	8125	892.542871832111	9
0	8126	892.574980012884	8
0	8129	892.683384112991	9
0	8130	892.750807375493	8
0	8133	893.129945991558	7
0	8135	893.410093467345	6
0	8137	893.515993285005	5
0	8140	893.542801676758	6
0	8141	893.8102684417	5
0	8144	894.073428221045	4
0	8146	894.475428799962	3
0	8148	894.716832397958	2
0	8151	895.066836162583	1
0	8153	895.717765506893	0
0	8161	896.560710078936	1
0	8163	896.651759549015	2
0	8166	897.031368154612	3
0	8167	897.046373362031	2
0	8169	897.498601449539	1
0	8171	897.576869513337	0
0	8178	897.999181379213	1
0	8181	898.101326682553	2
0	8182	898.276001776827	1
0	8184	898.393198580149	0
0	8197	900.355484970803	1
0	8199	900.41759074135	2
0	8200	900.435302741221	1
0	8203	900.700933159781	2
0	8204	900.775687270204	1
0	8206	900.815388850628	0
0	8210	901.394229595883	1
0	8212	901.452513919581	2
0	8214	901.827695779629	3
0	8215	901.887130749384	2
0	8218	901.898775653056	3
0	8219	901.979587433848	2
0	8222	901.986494186262	3
0	8224	902.070996827992	2
0	8227	902.115041692391	3
0	8228	902.206317712169	2
0	8231	902.213962479677	3
0	8233	902.739642670749	4
0	8234	902.952541519358	3
0	8237	903.005835323906	2
0	8240	903.251188006565	3
0	8241	903.37042237606	2
0	8243	903.598330820531	1
0	8246	904.381220118767	0
0	8249	904.770568036012	1
0	8251	904.842621564859	2
0	8253	904.890401694432	3
0	8255	904.939196348036	4
0	8257	905.427057598272	3
0	8259	905.478890756144	2
0	8261	905.717567042694	1
0	8263	905.759339623328	0
0	8280	907.214156153077	1
0	8282	907.367864637977	2
0	8284	908.170522572027	1
0	8287	908.37451589913	2
0	8288	908.456189693158	1
0	8291	908.546923855269	2
0	8292	908.5731911003	1
0	8296	909.001194025941	2
0	8298	909.085854786663	3
0	8300	909.250516695353	4
0	8301	909.420372258186	3
0	8303	909.43547152595	2
0	8306	909.494509574592	3
0	8307	909.563354401925	2
0	8310	909.61282071493	3
0	8312	909.667022340311	4
0	8314	909.844764807719	5
0	8316	910.061561750319	4
0	8319	910.247324362268	5
0	8321	910.314369277054	6
0	8322	910.372952425345	5
0	8325	910.535578767893	6
0	8326	910.595123530584	5
0	8328	910.779405491469	4
0	8331	910.904423132767	5
0	8334	911.220523821163	6
0	8336	911.340834449227	7
0	8337	911.604585715477	6
0	8340	912.023452660772	5
0	8343	912.442069883151	6
0	8344	912.546238545157	5
0	8346	912.585377390383	4
0	8349	912.678628070999	5
0	8351	912.791349999827	6
0	8353	912.814605341618	7
0	8354	912.852856837576	6
0	8356	912.896823827497	5
[...]
4	17321	1882.377017795407	3859
4	17325	1882.940101935243	3860
4	17330	1883.564906249689	3861
4	17341	1884.8378246403	3862
4	17343	1884.896008851172	3863
4	17348	1885.057465051627	3864
4	17352	1885.524812748197	3865
4	17357	1886.399178173074	3866
4	17361	1886.712532870542	3867
4	17364	1887.33603105364	3868
4	17366	1887.971492713492	3869
4	17371	1888.150231157067	3870
4	17373	1888.795960134705	3871
4	17378	1889.306033601455	3872
4	17384	1889.975496166808	3873
4	17387	1890.084283820665	3874
4	17395	1890.413766088967	3875
4	17397	1890.87173553285	3876
4	17400	1891.095380748717	3877
4	17404	1891.621912480277	3878
4	17417	1892.484543690042	3879
4	17426	1893.228339585877	3880
4	17430	1893.430058086844	3881
4	17432	1893.759930044687	3882
4	17439	1894.162504372205	3883
4	17441	1894.268164092022	3884
4	17443	1894.626044659142	3885
4	17445	1894.920786947694	3886
4	17448	1895.050899950314	3887
4	17454	1895.223236219863	3888
4	17456	1895.459913637328	3889
4	17458	1895.638925924128	3890
4	17463	1896.698147165931	3891
4	17465	1896.698375077053	3892
4	17471	1898.370685328756	3893
4	17475	1898.537506575782	3894
4	17480	1899.316415856467	3895
4	17487	1900.297018250272	3896
4	17489	1900.425081386254	3897
4	17493	1900.574891910339	3898
4	17499	1900.746832094437	3899
4	17501	1900.955667829067	3900
4	17511	1902.396262233802	3901
4	17513	1902.445085097257	3902
4	17515	1902.700178303055	3903
4	17520	1903.091106383968	3904
4	17525	1904.280779113819	3905
4	17531	1904.514256125049	3906
4	17537	1904.904192313955	3907
4	17551	1906.570752917398	3908
4	17555	1906.750506057099	3909
4	17560	1907.190186893608	3910
4	17564	1907.632241494132	3911
4	17566	1907.658801982501	3912
4	17577	1908.543952473827	3913
4	17582	1909.231339030736	3914
4	17591	1910.240148166238	3915
4	17597	1910.771573218535	3916
4	17602	1911.120360786212	3917
4	17604	1911.478163667953	3918
4	17606	1911.608589221133	3919
4	17608	1911.73776079078	3920
4	17611	1912.036760616781	3921
4	17613	1912.045823644927	3922
4	17619	1912.631707169066	3923
4	17622	1913.146983374981	3924
4	17624	1913.175826313026	3925
4	17626	1913.198998525424	3926
4	17628	1913.472902861385	3927
4	17630	1913.775085057537	3928
4	17633	1914.160355558552	3929
4	17635	1914.182673299294	3930
4	17645	1914.686233841977	3931
4	17647	1914.747405145558	3932
4	17652	1915.684751215572	3933
4	17659	1916.427459618357	3934
4	17661	1916.664394586089	3935
4	17663	1916.783336250375	3936
4	17668	1917.284660130363	3937
4	17675	1918.201348221263	3938
4	17677	1918.696542503543	3939
4	17681	1918.794926103	3940
4	17684	1919.477049041299	3941
4	17690	1921.020663091487	3942
4	17696	1921.28597872924	3943
4	17698	1921.613486410205	3944
4	17705	1922.306157609441	3945
4	17709	1922.537459278042	3946
4	17711	1922.5552252513	3947
4	17717	1924.759312473522	3948
4	17722	1925.469641650676	3949
4	17728	1927.569539567006	3950
4	17732	1927.607065508377	3951
4	17739	1928.142152311214	3952
4	17748	1929.084523762446	3953
4	17756	1929.914217958264	3954
4	17759	1930.17981764464	3955
4	17761	1930.563588580961	3956
4	17763	1930.704286826169	3957
4	17765	1930.823881454928	3958
4	17769	1930.982556409306	3959
4	17772	1931.535166415996	3960
4	17777	1932.400599295653	3961
4	17781	1932.514083170148	3962
4	17786	1933.103148884564	3963
4	17790	1933.371068139067	3964
4	17795	1934.0959026667	3965
4	17799	1934.827970579431	3966
4	17804	1935.537284757748	3967
4	17810	1935.8166449765	3968
4	17815	1936.120624791218	3969
4	17817	1936.158393015389	3970
4	17821	1936.942591244566	3971
4	17826	1937.474193000814	3972
4	17834	1939.031282565195	3973
4	17841	1940.161781042382	3974
4	17843	1940.535908497236	3975
4	17845	1940.5569772111	3976
4	17854	1941.481552060222	3977
4	17856	1941.78381097589	3978
4	17858	1941.819953991993	3979
4	17863	1942.251534084311	3980
4	17870	1943.338307725673	3981
4	17872	1943.419022033181	3982
4	17876	1943.811773133081	3983
4	17881	1944.271683566654	3984
4	17885	1944.542736524785	3985
4	17890	1945.855331168998	3986
4	17898	1947.151034092301	3987
4	17900	1947.451587617121	3988
4	17908	1949.270692211023	3989
4	17914	1949.792177719756	3990
4	17918	1949.980042351682	3991
4	17929	1950.983462567132	3992
4	17932	1951.251137873328	3993
4	17936	1951.478250508823	3994
4	17942	1951.70970257911	3995
4	17946	1951.974126870619	3996
4	17955	1952.392910423921	3997
4	17961	1952.760375626276	3998
4	17966	1953.003658217237	3999
4	17968	1953.017739229184	4000
4	17970	1953.055451184304	4001
4	17972	1953.653903660993	4002
4	17974	1953.655269897577	4003
4	17977	1954.416683185345	4004
4	17979	1954.509904047079	4005
4	17981	1954.725167590377	4006
4	17983	1954.760855092611	4007
4	17989	1956.420066973282	4008
4	17994	1957.369694944	4009
4	17999	1958.956670920678	4010
4	18004	1959.110515857634	4011
4	18015	1960.530415069248	4012
4	18019	1960.765331154564	4013
4	18022	1961.558566435393	4014
4	18025	1962.108481112945	4015
4	18027	1962.240834516649	4016
4	18034	1963.317100578429	4017
4	18038	1963.996265803707	4018
4	18043	1964.622703477783	4019
4	18047	1964.802707067268	4020
4	18051	1964.894125464954	4021
4	18056	1965.012267926469	4022
4	18064	1965.815611181391	4023
4	18067	1966.523785841999	4024
4	18071	1966.762493730581	4025
4	18078	1967.259797190146	4026
4	18082	1967.679529180886	4027
4	18084	1967.854898598363	4028
4	18087	1968.011667303264	4029
4	18089	1968.087640607821	4030
4	18096	1969.034293368124	4031
4	18100	1969.088398758933	4032
4	18127	1972.525561025115	4033
4	18129	1972.801015975244	4034
4	18131	1972.875797529364	4035
4	18133	1972.907637731683	4036
4	18136	1973.111140532298	4037
4	18138	1973.258512139916	4038
4	18142	1973.983631248245	4039
4	18147	1974.330074001827	4040
4	18150	1975.310414368877	4041
4	18152	1975.667150693843	4042
4	18155	1976.429264840467	4043
4	18157	1976.80598305898	4044
4	18160	1977.023722596943	4045
4	18162	1977.182558674942	4046
4	18169	1978.349446697719	4047
4	18180	1979.269626325717	4048
4	18182	1979.325851118735	4049
4	18191	1980.058778773288	4050
4	18193	1980.116708674097	4051
4	18195	1980.181975801226	4052
4	18197	1980.202602536427	4053
4	18201	1980.238090963907	4054
4	18205	1980.631305523189	4055
4	18207	1980.753283118598	4056
4	18212	1981.170691283284	4057
4	18216	1981.637813602434	4058
4	18218	1981.823372279822	4059
4	18223	1982.015930766357	4060
4	18227	1982.62230446405	4061
4	18232	1983.330278572824	4062
4	18236	1983.484001727863	4063
4	18241	1984.000278895139	4064
4	18245	1984.637484348765	4065
4	18250	1985.505368490265	4066
4	18254	1985.792271724023	4067
4	18260	1987.950823316454	4068
4	18265	1988.326544262439	4069
4	18269	1988.456172746832	4070
4	18273	1988.855683151874	4071
4	18281	1990.473262887734	4072
4	18283	1990.60518429339	4073
4	18294	1991.072509485695	4074
4	18296	1991.320360249791	4075
4	18303	1992.250354519315	4076
4	18307	1992.722454459062	4077
4	18309	1992.740756568172	4078
4	18313	1992.85887508709	4079
4	18315	1992.922900874438	4080
4	18328	1993.966445644026	4081
4	18333	1994.798913941455	4082
4	18338	1995.695152806568	4083
4	18340	1995.953563646061	4084
4	18348	1997.082178822019	4085
4	18350	1997.117891981808	4086
4	18354	1997.466698159999	4087
4	18358	1997.918291907499	4088
4	18363	1998.25536713935	4089
4	18367	1998.685367331787	4090
4	18369	1998.770761474702	4091
4	18371	1998.83128844136	4092
4	18373	1998.934517983971	4093
4	18376	1999.009844858128	4094
4	18380	1999.304842811329	4095
4	18385	2000.522867691334	4096
4	18390	2001.108719927727	4097
4	18399	2002.420324875363	4098
4	18401	2002.452447562566	4099
4	18403	2002.458719628927	4100
4	18410	2003.115382296515	4101
4	18412	2003.829433700156	4102
4	18420	2005.097983264302	4103
4	18422	2005.288382462813	4104
4	18426	2005.933140845668	4105
4	18431	2006.177115603084	4106
4	18437	2006.97757213674	4107
4	18440	2007.0036883832	4108
4	18447	2008.461348555105	4109
4	18451	2008.877661253058	4110
4	18454	2009.182606527846	4111
4	18459	2010.417883297681	4112
4	18466	2011.148683995029	4113
4	18468	2011.731179665027	4114
4	18473	2012.502784302959	4115
4	18478	2013.025930569854	4116
4	18487	2014.35484290688	4117
4	18489	2014.52120815231	4118
4	18491	2014.688889050815	4119
4	18499	2016.357782675009	4120
4	18501	2016.519136279655	4121
4	18508	2017.071747375605	4122
4	18510	2017.195039459274	4123
4	18515	2018.245898915173	4124
4	18520	2019.631191404499	4125
4	18524	2019.960093282012	4126
4	18529	2020.444295246086	4127
4	18540	2023.277114098979	4128
4	18542	2023.35069482146	4129
4	18548	2023.74700685649	4130
4	18550	2023.84204334055	4131
4	18552	2023.864164106878	4132
4	18557	2024.434586695376	4133
4	18566	2025.412675929197	4134
4	18570	2025.72001640701	4135
4	18572	2025.786135746642	4136
4	18574	2025.820985626561	4137
4	18585	2026.861857805098	4138
4	18592	2027.08419600727	4139
4	18596	2027.696514630354	4140
4	18600	2027.805697950324	4141
4	18607	2028.143170641951	4142
4	18609	2028.332409265138	4143
4	18611	2028.944820797428	4144
4	18613	2028.954997607675	4145
4	18616	2029.009741795386	4146
4	18618	2029.26455522426	4147
4	18623	2030.135843422615	4148
4	18628	2031.042592701593	4149
4	18638	2031.847858321303	4150
4	18642	2031.959599459725	4151
4	18645	2032.166959742432	4152
4	18647	2032.746146419749	4153
4	18649	2032.820799696496	4154
4	18653	2032.904995888058	4155
4	18660	2033.622970082931	4156
4	18664	2033.870687859194	4157
4	18667	2034.471197164968	4158
4	18674	2035.085063829274	4159
4	18678	2035.619069335768	4160
4	18680	2035.690012677173	4161
4	18692	2037.398271908152	4162
4	18694	2037.598834350572	4163
4	18701	2038.169807568113	4164
4	18705	2038.718827354094	4165
4	18711	2038.96456721441	4166
4	18714	2039.042553578762	4167
4	18716	2039.365787240216	4168
4	18724	2039.803303522076	4169
4	18729	2040.112793354467	4170
4	18733	2040.37695943828	4171
4	18737	2040.464662227004	4172
4	18743	2040.860634024623	4173
4	18746	2041.005061739533	4174
4	18750	2041.225563779136	4175
4	18754	2041.491567136955	4176
4	18770	2043.065728265953	4177
4	18772	2043.151492044984	4178
4	18774	2043.181870247361	4179
4	18781	2044.584797297017	4180
4	18784	2045.397958135979	4181
4	18788	2045.694182580547	4182
4	18790	2045.77645066748	4183
4	18793	2046.069591949615	4184
4	18800	2047.120754753897	4185
4	18806	2047.657064440446	4186
4	18813	2048.568459682108	4187
4	18815	2048.710938933205	4188
4	18817	2048.806466614364	4189
4	18820	2049.278574783554	4190
4	18822	2049.34875094935	4191
4	18826	2049.433806824228	4192
4	18830	2049.57149665147	4193
4	18841	2050.320465993828	4194
4	18843	2050.725307942718	4195
4	18848	2051.078314715307	4196
4	18850	2051.214692971812	4197
4	18852	2051.672939475772	4198
4	18857	2052.590512723317	4199
4	18862	2053.087872935567	4200
4	18870	2053.446165280095	4201
4	18877	2054.367428596937	4202
4	18884	2055.085889746751	4203
4	18890	2055.485138660306	4204
4	18895	2056.226531929528	4205
4	18897	2056.248944323701	4206
4	18903	2056.821194965997	4207
4	18906	2057.117336342459	4208
4	18912	2057.893525896645	4209
4	18917	2058.601172917401	4210
4	18926	2059.019378526277	4211
4	18928	2059.06509489555	4212
4	18930	2059.201880060442	4213
4	18932	2059.32582212702	4214
4	18936	2059.700506509812	4215
4	18938	2059.892091753149	4216
4	18941	2060.26298238664	4217
4	18945	2060.842667445525	4218
4	18950	2061.133575768079	4219
4	18954	2061.180650691927	4220
4	18956	2061.700310488783	4221
4	18960	2061.950236813875	4222
4	18962	2061.964293351386	4223
4	18965	2062.097948847597	4224
4	18983	2064.362368239012	4225
4	18989	2064.815801728322	4226
4	18994	2065.328297933717	4227
4	18996	2065.707707973782	4228
4	18998	2065.819683533674	4229
4	19003	2066.332787140007	4230
4	19005	2066.419167881742	4231
4	19013	2066.993535525848	4232
4	19021	2068.048120780198	4233
4	19025	2068.641638722092	4234
4	19027	2068.642647221546	4235
4	19036	2069.622056667346	4236
4	19038	2069.817661521585	4237
4	19043	2070.030113222561	4238
4	19049	2070.342910424318	4239
4	19051	2070.645648907453	4240
4	19062	2071.694297952752	4241
4	19069	2072.31943852829	4242
4	19071	2072.384122793695	4243
4	19073	2072.554368745152	4244
4	19077	2072.637708350675	4245
4	19079	2072.726842522639	4246
4	19093	2074.700837686393	4247
4	19097	2074.953688302999	4248
4	19106	2075.238733136659	4249
4	19114	2075.626301060628	4250
4	19117	2076.202200428749	4251
4	19119	2076.406103830051	4252
4	19121	2076.645533637631	4253
4	19123	2076.999701343412	4254
4	19128	2077.487359990705	4255
4	19130	2077.556576182454	4256
4	19139	2078.865042902976	4257
4	19146	2079.18137653083	4258
4	19150	2079.218994316819	4259
4	19152	2079.422195048754	4260
4	19154	2079.489787042436	4261
4	19159	2080.054717193419	4262
4	19161	2080.336953423148	4263
4	19163	2080.437060718949	4264
4	19169	2080.890181949736	4265
4	19174	2081.312146079398	4266
4	19180	2081.915400456814	4267
4	19184	2081.928287113901	4268
4	19186	2081.984855627308	4269
4	19191	2082.641853818658	4270
4	19194	2083.152546812536	4271
4	19196	2083.189355896359	4272
4	19198	2083.586610411828	4273
4	19203	2084.533301843006	4274
4	19206	2085.125723534661	4275
4	19222	2087.556705376306	4276
4	19224	2087.571362821098	4277
4	19226	2087.745601147843	4278
4	19231	2088.159435689987	4279
4	19233	2088.302962284288	4280
4	19237	2088.719551901836	4281
4	19240	2089.311621966915	4282
4	19242	2089.473675284581	4283
4	19246	2089.953529879325	4284
4	19251	2090.239099041797	4285
4	19253	2090.83119778072	4286
4	19262	2091.295556347827	4287
4	19268	2091.56815169736	4288
4	19272	2091.789568575375	4289
4	19275	2092.133135677399	4290
4	19277	2092.385943261456	4291
4	19284	2093.371155965489	4292
4	19286	2093.375953233928	4293
4	19290	2093.468483351599	4294
4	19294	2093.715537753207	4295
4	19299	2094.034118821367	4296
4	19301	2094.094137628156	4297
4	19303	2094.228344633075	4298
4	19305	2094.581868716047	4299
4	19307	2094.61034976445	4300
4	19309	2094.657930025688	4301
4	19311	2094.801279515222	4302
4	19313	2094.975298316508	4303
4	19319	2096.937534675	4304
4	19324	2097.274982894078	4305
4	19330	2097.636376857074	4306
4	19332	2097.733494324687	4307
4	19334	2097.837602262114	4308
4	19337	2098.038140382234	4309
4	19339	2098.240551268308	4310
4	19348	2099.997886361696	4311
4	19354	2101.257516272818	4312
4	19370	2103.004737091029	4313
4	19372	2103.670435049708	4314
4	19379	2104.715754547103	4315
4	19381	2104.8700334197	4316
4	19383	2104.941790767516	4317
4	19386	2105.023624009279	4318
4	19392	2105.255543037831	4319
4	19394	2105.870362364022	4320
4	19397	2106.333943096653	4321
4	19399	2106.352222472513	4322
4	19401	2106.394813474978	4323
4	19405	2106.616451874989	4324
4	19407	2106.761082770046	4325
4	19412	2107.665762107811	4326
4	19419	2108.615493187238	4327
4	19421	2108.762695520049	4328
4	19430	2109.682762899135	4329
4	19438	2111.710356684094	4330
4	19440	2111.868430027979	4331
4	19447	2112.144058423499	4332
4	19449	2112.369172036795	4333
4	19451	2112.416255757962	4334
4	19453	2112.535527073914	4335
4	19458	2113.098164410438	4336
4	19462	2113.340783088784	4337
4	19479	2114.450958063193	4338
4	19481	2114.532863990961	4339
4	19485	2114.860558289551	4340
4	19487	2114.876501077985	4341
4	19489	2114.981230080972	4342
4	19491	2114.995229278384	4343
4	19494	2115.221733361306	4344
4	19498	2115.435535430721	4345
4	19500	2115.451971198162	4346
4	19509	2118.278979379018	4347
4	19513	2118.751308543489	4348
4	19522	2119.335974486095	4349
4	19530	2119.736359160549	4350
4	19535	2120.160383001287	4351
4	19537	2120.366928588099	4352
4	19539	2120.440610262692	4353
4	19546	2121.805913108496	4354
4	19550	2121.978093615046	4355
4	19553	2122.166142224845	4356
4	19555	2122.344489612255	4357
4	19566	2123.316571319257	4358
4	19572	2123.779108162814	4359
4	19575	2124.108954381839	4360
4	19579	2124.380701031319	4361
4	19599	2126.495952416608	4362
4	19601	2126.644544388711	4363
4	19603	2126.812022523194	4364
4	19605	2126.857751217563	4365
4	19610	2127.000555639935	4366
4	19616	2127.796877735097	4367
4	19623	2128.171579883086	4368
4	19627	2128.983650669964	4369
4	19634	2129.826071535486	4370
4	19636	2129.838191629768	4371
4	19638	2129.92952854099	4372
4	19643	2130.070782416534	4373
4	19658	2131.751970244823	4374
4	19660	2131.859897838261	4375
4	19664	2131.923953401886	4376
4	19669	2132.413311904443	4377
4	19675	2132.804910291996	4378
4	19678	2133.216099081094	4379
4	19680	2133.406399208248	4380
4	19684	2133.640426128606	4381
4	19686	2133.918312462977	4382
4	19689	2134.109797381789	4383
4	19696	2135.172479276828	4384
4	19707	2136.14801881375	4385
4	19711	2136.408573603883	4386
4	19718	2137.316292734739	4387
4	19726	2137.926860264216	4388
4	19729	2138.2658086978	4389
4	19737	2138.539913683005	4390
4	19742	2139.179288880418	4391
4	19746	2139.271998399891	4392
4	19748	2139.311920675449	4393
4	19752	2139.493175166555	4394
4	19754	2139.708374213443	4395
4	19765	2140.145226728795	4396
4	19769	2140.363172253626	4397
4	19773	2140.474058993971	4398
4	19782	2141.173045858413	4399
4	19784	2141.521350639035	4400
4	19791	2142.535405365978	4401
4	19794	2143.134124839701	4402
4	19796	2143.370375345247	4403
4	19798	2143.405778014421	4404
4	19802	2143.698972872669	4405
4	19806	2145.22159111994	4406
4	19808	2145.298907314879	4407
4	19810	2145.299832220438	4408
4	19814	2145.83146152351	4409
4	19817	2146.084590703298	4410
4	19819	2146.18611526331	4411
4	19825	2146.880391442791	4412
4	19830	2147.312624502491	4413
4	19832	2147.582551005298	4414
4	19834	2147.787115358544	4415
4	19836	2147.940980837521	4416
4	19839	2148.175232177985	4417
4	19847	2148.835660306291	4418
4	19863	2150.449327002373	4419
4	19870	2151.147101527968	4420
4	19874	2151.889383582838	4421
4	19876	2151.943116703301	4422
4	19879	2152.242531933819	4423
4	19881	2152.315250468166	4424
4	19885	2152.592500978691	4425
4	19890	2153.225968207801	4426
4	19892	2153.309511840511	4427
4	19894	2153.383787363026	4428
4	19896	2153.437551755048	4429
4	19898	2153.485298401674	4430
4	19900	2153.693541067144	4431
4	19905	2154.033443338199	4432
4	19907	2154.06775579023	4433
4	19913	2154.395276102856	4434
4	19915	2154.874474502639	4435
4	19920	2155.375446015153	4436
4	19922	2155.712642048386	4437
4	19928	2155.805522441652	4438
4	19931	2156.029622204691	4439
4	19933	2156.289501935563	4440
4	19935	2156.290405732742	4441
4	19937	2156.808611119634	4442
4	19940	2157.62331668598	4443
4	19942	2157.663871777699	4444
4	19944	2157.91796134236	4445
4	19947	2158.199185615648	4446
4	19949	2158.316154447842	4447
4	19951	2158.596704151387	4448
4	19959	2158.949948929307	4449
4	19962	2159.418699542446	4450
4	19964	2159.521555675614	4451
4	19973	2160.896943386684	4452
4	19976	2161.005525817674	4453
4	19978	2161.046134630506	4454
4	19982	2161.643030933796	4455
4	19988	2161.934404130246	4456
4	19995	2162.59582048637	4457
4	20000	2163.120597203559	4458
4	20006	2163.91172991314	4459
4	20008	2163.929837919293	4460
4	20013	2164.261093100922	4461
4	20019	2164.768195925541	4462
4	20021	2164.790674649564	4463
4	20024	2165.042397360209	4464
4	20026	2165.09147035665	4465
4	20031	2166.103210421414	4466
4	20038	2167.124546897601	4467
4	20041	2168.106341903393	4468
4	20045	2168.641616048183	4469
4	20050	2169.024055960472	4470
4	20054	2169.533010540456	4471
4	20058	2169.888021187541	4472
4	20065	2170.197656919716	4473
4	20067	2170.366539651054	4474
4	20071	2170.544621133447	4475
4	20078	2171.347158660984	4476
4	20080	2171.416382292279	4477
4	20097	2172.909150587104	4478
4	20100	2173.261133486536	4479
4	20102	2173.279224698841	4480
4	20104	2173.280992481715	4481
4	20106	2173.291488133582	4482
4	20108	2173.67046211901	4483
4	20117	2174.764701732428	4484
4	20122	2175.084674201546	4485
4	20124	2175.230824843622	4486
4	20128	2175.69176530374	4487
4	20135	2176.493576576446	4488
4	20137	2176.523205180661	4489
4	20154	2177.552637733035	4490
4	20160	2177.924220403462	4491
4	20162	2177.975530315018	4492
4	20174	2179.087695323929	4493
4	20183	2180.034084953666	4494
4	20187	2180.169460699105	4495
4	20189	2180.481156438459	4496
4	20191	2180.625594701217	4497
4	20200	2181.532117149338	4498
4	20203	2182.347166763547	4499
4	20205	2182.423595216211	4500
4	20207	2182.484733186613	4501
4	20209	2182.743573316877	4502
4	20211	2182.949619323106	4503
4	20218	2183.824075671954	4504
4	20229	2186.49012323755	4505

