file 14802732 1561384272                                        
version 2
run Net1-0-20190624-15:50:35-4737
attr configname Net1
attr datetime 20190624-15:50:35
attr experiment Net1
attr inifile omnetpp.ini
attr iterationvars ""
attr iterationvarsf ""
attr measurement ""
attr network Net
attr processid 4737
attr repetition 0
attr replication #0
attr resultdir results
attr runnumber 0
attr seedset 0
param **.gen.interArrivalTime exponential(0.5s)
param **.sys.serviceTime exponential(0.3s)

vector 0 Net.queues[0] qlen:vector ETV
attr interpolationmode sample-hold
attr title "queue length, vector"
vector 1 Net.queues[0] queueingTime:vector ETV
attr interpolationmode none
attr title "queueing time at dequeue, vector"
attr unit s
vector 2 Net.queues[0] responseTime:vector ETV
attr interpolationmode none
attr title "response time at end of service, vector"
attr unit s
vector 3 Net.sink lifetime:vector ETV
attr interpolationmode none
attr title "lifetime of arrived msg, vector"
attr unit s
vector 4 Net.sink arrivedMsg:vector ETV
attr interpolationmode none
attr title "number of arrived msg, vector"
0	1045 910733 0 90626 0 9918.209790347292 32768 0 33 155648 1453168
1	911778 1273942 3 147150 0 16070.115666856689 32768 0 14.654451685358 53945.671122752 215909.67993962
2	2185720 1354551 6 147154 0.74384168483 16070.483394062421 32768 8.3156098e-05 15.580359267301 66954.611846187 269233.15778761
3	3540271 1354552 7 147155 0.74384168483 16070.483394062421 32768 8.3156098e-05 15.580359267301 66954.611846187 269233.15778761
4	4894823 1052014 7 147155 0.74384168483 16070.483394062421 32768 1 32768 536887296 11728660905984
0	5946837 979651 90629 181729 9918.277012754982 19861.950829192133 32768 0 28 147524 1249100
0	6926488 983438 181732 274345 19862.073648740833 30208.975378503338 32768 0 37 144658 1255408
1	7909926 1316508 147154 294645 16070.483394062421 32499.099805545971 32768 0 13.060292118558 50892.263436252 192389.38348585
2	9226434 1402109 147159 294650 16071.134449130925 32500.002359148452 32768 1.6025589e-05 13.259153706093 64060.997371375 243794.69534718
3	10628543 1402109 147160 294651 16071.134449130925 32500.002359148452 32768 1.6025589e-05 13.259153706093 64060.997371375 243794.69534718
4	12030652 1110587 147160 294651 16071.134449130925 32500.002359148452 32768 32769 65536 1610629120 82098478825472
0	13141239 546047 274347 326072 30209.017274463502 35998.448621446836 18205 0 32 75950 657398
1	13687286 281096 294650 326078 32500.002359148452 35999.353482295306 6984 0 15.164008322129 11531.518474051 48770.659999429
2	13968382 298831 294654 326079 32500.254170188782 35999.494097044779 6984 0.000726868952 15.80635818727 14349.791353959 60464.560763157
3	14267213 298831 294655 326080 32500.254170188782 35999.494097044779 6984 0.000726868952 15.80635818727 14349.791353959 60464.560763157
4	14566044 236687 294655 326080 32500.254170188782 35999.494097044779 6984 65537 72520 482095044 33306685525164

